<?xml version="1.0" encoding="UTF-8"?>

<configuration xmlns:xsi="http://www.w3.org/2001/XMLSchema-instance" xsi:noNamespaceSchemaLocation="http://sumo.sf.net/xsd/sumoConfiguration.xsd">

    <input>
        <net-file value="highway.net.xml"/>
        <route-files value="highway_60.rou.xml"/>
    </input>

    <output>

    </output>

    <time>
        <end value="400"/>
    </time>

    <processing>
        <time-to-teleport value="150"/>
        <max-depart-delay value="500"/>
    </processing>

    <report>
        <verbose value="true"/>
        <no-warnings value="true"/>
    </report>

</configuration>
