<?xml version="1.0" encoding="UTF-8"?>

<!-- generated on Wed May 15 17:58:44 2013 by SUMO netconvert Version 0.15.0
<?xml version="1.0" encoding="UTF-8"?>

<configuration xmlns:xsi="http://www.w3.org/2001/XMLSchema-instance" xsi:noNamespaceSchemaLocation="http://sumo.sf.net/xsd/netconvertConfiguration.xsd">

    <input>
        <node-files value="highway.nod.xml"/>
        <edge-files value="highway.edg.xml"/>
    </input>

    <output>
        <output-file value="highway2.net.xml"/>
    </output>

    <processing>
        <no-turnarounds value="true"/>
    </processing>

</configuration>
-->

<net version="0.13" xmlns:xsi="http://www.w3.org/2001/XMLSchema-instance" xsi:noNamespaceSchemaLocation="http://sumo.sf.net/xsd/net_file.xsd">

    <location netOffset="-50.00,-100.00" convBoundary="0.00,0.00,10000.00,0.00" origBoundary="0.00,0.00,10100.00,200.00" projParameter="!"/>

    <edge id="sopra1" from="2" to="0" priority="50">
        <lane id="sopra1_0" index="0" speed="36.00" length="10000.00" shape="10000.00,8.25 0.00,8.25"/>
        <lane id="sopra1_1" index="1" speed="36.00" length="10000.00" shape="10000.00,4.95 0.00,4.95"/>
        <lane id="sopra1_2" index="2" disallow="hov" speed="36.00" length="10000.00" shape="10000.00,1.65 0.00,1.65"/>
    </edge>
    <edge id="sotto1" from="0" to="2" priority="50">
        <lane id="sotto1_0" index="0" speed="36.00" length="10000.00" shape="0.00,-8.25 10000.00,-8.25"/>
        <lane id="sotto1_1" index="1" speed="36.00" length="10000.00" shape="0.00,-4.95 10000.00,-4.95"/>
        <lane id="sotto1_2" index="2" disallow="hov" speed="36.00" length="10000.00" shape="0.00,-1.65 10000.00,-1.65"/>
    </edge>

    <junction id="0" type="dead_end" x="0.00" y="0.00" incLanes="sopra1_0 sopra1_1 sopra1_2" intLanes="" shape="-0.00,-0.05 -0.00,-9.85 0.00,9.85 0.00,0.05"/>
    <junction id="2" type="dead_end" x="10000.00" y="0.00" incLanes="sotto1_0 sotto1_1 sotto1_2" intLanes="" shape="10000.00,0.05 10000.00,9.85 10000.00,-9.85 10000.00,-0.05"/>

</net>
