<?xml version="1.0" encoding="UTF-8"?>

<!-- generated on Wed Jul 30 21:05:43 2014 by SUMO duarouter Version 0.17.1
<?xml version="1.0" encoding="UTF-8"?>

<configuration xmlns:xsi="http://www.w3.org/2001/XMLSchema-instance" xsi:noNamespaceSchemaLocation="http://sumo.sf.net/xsd/duarouterConfiguration.xsd">

    <input>
        <net-file value="/home/pierpaolo/Scrivania/scriptMirco/scriptMirco/facilitatore/v0.4/v0.4/net/Madrid2/Madrid2.net.xml"/>
        <trip-files value="/home/pierpaolo/Scrivania/scriptMirco/scriptMirco/facilitatore/v0.4/v0.4/rou/Madrid2/Madrid2.trips.xml"/>
    </input>

    <output>
        <output-file value="/home/pierpaolo/Scrivania/scriptMirco/scriptMirco/facilitatore/v0.4/v0.4/rou/Madrid2/Madrid2.rou.xml"/>
    </output>

    <processing>
        <ignore-errors value="true"/>
    </processing>

    <time>
        <begin value="0.0"/>
        <end value="1000.0"/>
    </time>

</configuration>
-->

<routes xmlns:xsi="http://www.w3.org/2001/XMLSchema-instance" xsi:noNamespaceSchemaLocation="http://sumo.sf.net/xsd/routes_file.xsd">
    <vehicle id="0" depart="0.00">
        <route edges="44098015 44098007#0 44098007#1 44098007#2 44098007#3 44098007#5 44098007#6 261523809 4811724#0 4811724#1 67979364 43797351#0 43797351#1 43797350#0 43797350#1 43797350#2 43797350#3 43797350#4 43797350#5 43797350#6 43797350#7 43797350#8 43797350#9 30674619#0 30674619#1 30674619#2 243991596#0 243991596#1 243991596#2 131751221#0 131751221#1 240352170#0 240352170#1 37352455 27396510#0 27396510#1 43759853#0 43759853#1 252387586#0 252387586#1 252387586#2 252387586#3 252387586#4 44737268#0 44737268#1 44737268#2 44737268#3 44737268#4 131451859 7971513 44508935 136124312#0 136124312#1 252387427#0 252387427#1 252387427#2 252387427#3 252387427#4 252387427#5 164369271#0 164369271#1 164369277#0 164369277#1 106343228#0 106343228#1 43405584#1 43405584#2 43405584#3 43405583#0 43405583#1"/>
    </vehicle>
    <vehicle id="1" depart="0.50">
        <route edges="137519638#3 137519638#4 137519638#5 137519638#6 137519638#7 137519638#8 137519638#9 24536095#0 24536095#1 43759863#3 164369268 164369267#4 164369267#5 164369269#0 164369269#1 4334163#0 4334163#1 44508932#0 44508932#1 112538817#0 112538817#1 112538817#2 44737269#0 44737269#1 44737269#2 44737269#3 243496118#0 243496118#1 131443348#0 131443348#1 4349010#0 4349010#1 44288721#0 44288721#1 44288721#2 44288721#4 44288721#5 44288721#6 44288721#7 128089326#0 7971488#2 30674611 262951801#0 262951801#1 262951801#2 262951801#3 262951801#4 262951801#5 262951801#6 262951801#7 262951801#8 262951801#9 262951801#10 262951801#11 262951801#12 136126732#0 136126732#1 128089312 28906806#0 28906806#1 44571134#0 44571134#1 45316409 239205928#0 239205928#1 239205928#2 4824643#0 4824643#1 4824643#2 44097992#0 44097992#1 44097992#2 4824589#1 4824589#2 4824589#3 4824589#4 4824589#5 4824706#1 4824706#2 4824591#2 4824591#3"/>
    </vehicle>
    <vehicle id="2" depart="1.00">
        <route edges="-7642988#3 -7642988#2 -7642988#1 -7642988#0 4101279#3 4101279#5 4101279#7 4101279#8 7971582#0 7971582#1 4328803#0 4328803#1 4328803#2 32865074 155551744#0 155551744#1 155551744#2 155551744#3 32597088#0 32597088#1 32597088#2 32597088#3 4328843 46098088#0 46098088#1 261728552 43410310 43410311 7971500#0 7971500#1 7971499#0 7971499#1 7971499#2 30676408 30676403#0 30676403#1 30676403#2 29485945#1 29487193 29486859 4328795#5 7642974 4328769#0 4328770#0 4328770#1 4328770#2 4328770#3 29231553#2 7972750#0 7972750#1 -27879686 7972744#0 7972744#1 166226103#0 166226103#2"/>
    </vehicle>
    <vehicle id="4" depart="2.00">
        <route edges="-23101692#3 -23101692#1 -23101692#0 -70674357#1 70674377#0 4350986#0 4350986#1 4350986#2 4350986#3 62516795#0 131447318#3 131447318#4 68175001 71079513#0 71079513#1 112154453 4350218#0 4350218#1 4350218#2 4350218#3 4350218#4 4350218#5 4350218#6 41966992 44571128#0 44571128#1"/>
    </vehicle>
    <vehicle id="5" depart="2.50">
        <route edges="4629935#0 4629935#1 111417886#0 111417886#1 194091507#1 290792856#0 290792856#1 290792856#2 290792856#4 38755270#1 38755270#2 261837216#4 261837216#6 261837216#9 261837216#0 -44493805#5 -44493805#4 -44493805#3 -44493805#2 -44493805#1 -44493805#0 15245060#0 15245060#1 262609367#2 44493804#0 44493804#1 44493804#2 44493804#3 44493804#4 4635108 245721237#0"/>
    </vehicle>
    <vehicle id="6" depart="3.00">
        <route edges="-238608545#0 -194093373 -194093377#0 -194093377#3 -29001980#1 -29001980#0 111417886#1 290792858#3 290792858#4 290792858#5 42967971#0 42967971#1 44532636#0 44532636#1 4811757#0 4811757#1 37018407#0 37018407#1 37018407#2 37018407#3 37018407#4 43797350#0 43797350#1 43797350#2 43797350#3 43797350#4 43797350#5 43797350#6 43797350#7 43797350#8 43797350#9 30674619#0 30674619#1 30674619#2 243991596#0 243991596#1 243991596#2 131751221#0 131751221#1 240352170#0 240352170#1 4363468#0 248379688 131443347#1 131443348#0 131443348#1 131431688#0 131431688#1"/>
    </vehicle>
    <vehicle id="7" depart="3.50">
        <route edges="131443347#0 131443347#1 131443348#0 131443348#1 131431688#0 131431688#1 37352455 43759849#0 43759849#1 43759849#2 131443349 43405579#0 43405579#1 43405580 29419688 44360624#0 44360624#1 43405581 4078600#0 4078600#1 4078600#2 185181407#0 185181407#1 4387423#0 4387423#1 4387423#2 4387423#3 4635107#2 4635107#3 4635107#6 4635107#7"/>
    </vehicle>
    <vehicle id="8" depart="4.00">
        <route edges="265509099 265509096 7712530#3 7712530#4 7712530#5 7712530#6 7712530#7 4487670#6 4487670#7 4487670#8 112538828#4 46098085#1 4346299#0 4346299#1 4346299#2 4346299#3 242547870 4349010#1 44288721#0 44288721#1"/>
    </vehicle>
    <vehicle id="9" depart="4.50">
        <route edges="-23594976#3 -23594976#2 -23594976#1 -23594976#0 4078600#1 4078600#2 185181407#0 185181407#1 4387423#0 4387423#1 4387423#2 -44536100#1 -44536100#0"/>
    </vehicle>
    <vehicle id="10" depart="5.00">
        <route edges="7732932#0 7732932#1 41699421#5 41699421#6 41699421#7 4346287#0 4346287#1 4346287#2 4346287#3 4346287#4 4346287#5 4346287#6 4346287#7 4346287#8 131451865#0 131451865#1 131451865#2 131451865#3 131451865#4 68175003 4350216 43199438 130583886 68174996#0 68174996#1 68175001 71079513#0 71079513#1 112154462 43199459#0 43199459#1 71054748#0 142423898#0 142423898#1 142423898#2 7972747 166226107#0 166226107#1 166226107#2 4328771#0 4328771#1 22781432 7972702#2 48418356#1 48418470#0 7972705#0"/>
    </vehicle>
    <vehicle id="11" depart="5.50">
        <route edges="-7971929 79483259#0 79483259#1 79483259#2 4487153#3 45757392 -239499978 -30993228#1 -293712003#4 -293712003#3 -293712003#2 -293712003#1 -293712003#0 -293712004#9 -293712004#7 -293712004#6 -293712004#5 -293712004#4 29499412#0 29499412#1 29499412#2 29499412#3 29499412#4 29499412#5 29499410#0 4101283#2 4101283#3"/>
    </vehicle>
    <vehicle id="12" depart="6.00">
        <route edges="-23101698#1 -23101698#0 23101692#3 23101692#4 31785601#4 31785601#5 70674483 131451858#0 131451858#1 131451858#2 131451858#3 131451858#4 131451858#5 131451858#6 43199398#0 43199398#1 112154453 4350218#0 4350218#1 4350218#2 4350218#3 4350218#4 4350218#5 4350218#6 41966992 44571128#0 44571128#1 44571128#2 44571128#3 44571128#4 44571128#5 35952872 4811724#0 4811724#1 67979364 43797351#0 43797351#1 43797350#0 43797350#1 43797350#2 43797350#3 43797350#4 43797350#5 43797350#6 43797350#7 43797350#8 43797350#9 7972161#2 7972161#3 7972167 7726298#0 7972172#1 7972172#2 285582145#2 285582145#3 285582145#4 285582145#5 43405579#1 43405580 29419688 44360624#0 44360624#1 43405581 43407377#0 43407377#1 179267061#0 179267061#1 179267061#2 -44572474#1 -44572474#0 -44572472#1 -44572472#0 -44335829#1 -44335829#0 29725408#0 29725408#1 70688342#2 44572470#0 44572470#1 44335832#0 44335831 131700744 4645470#0 4645470#1 4645470#2 133150561#13"/>
    </vehicle>
    <vehicle id="13" depart="6.50">
        <route edges="7726295#0 7726295#1 37352453#0 128089316 4363472#1 128089317 37352453#2 37352453#3 128089326#0 7971488#2 131431691 4363472#3 7972161#0 7972161#1 7972161#2 7972161#3 7972167 7726298#0 7972172#1 7972172#2 285582145#2 285582145#3 285582145#4 285582145#5 43405579#1 43405580 29419688 44360624#0 44360624#1 43405581 43407377#0 43407377#1 179267061#0 179267061#1 179267061#2 -44572474#1 -44572474#0 -44572472#1 -44572472#0 -44335829#1 -44335829#0 29725408#0 29725408#1 70688342#2 44572470#0 44572470#1 -71079626#1 28684240"/>
    </vehicle>
    <vehicle id="14" depart="7.00">
        <route edges="109462880#1 109462880#2 109462880#3 109462880#4 109462880#5 -137519639#1 -137519639#0 137216215#0 137216215#1 44572476 -44572475#2 -44572475#1 44572474#0 44572474#1 29974989#0 29974989#1 29974989#2 43407376 29975003 29974988#0 29974988#1 29974988#2 43407378 43405576#0 37352456#0 37352456#1 37352456#2 112538808 131443347#0 131443347#1 4346298#0 4346298#1 112538828#0 112538828#1 112538828#2 112538828#3 112538828#4 168404659 46098088#0 46098088#1 261728552 43410310 43410311 7971500#0 7971500#1 7971499#0 7971499#1 7971499#2"/>
    </vehicle>
    <vehicle id="15" depart="7.50">
        <route edges="44493804#2 44493804#3 44493804#4 4635108 28401297 44335836 44335834#0 44335834#1 262609369#2 262609368 44493802#0 44493802#1 262609367#4 44493803#0 44493803#1 44493805#0 44493805#1 44493805#2 44493805#3 44493805#4 44493805#5 261837216#2 261837216#4 -288004304#4 -288004304#3 -288004304#1 -288004304#0 30747198#1 270408666#0 270408666#1 29001980#0 29001980#1 -194093377#2 -194093377#1 194093373"/>
    </vehicle>
    <vehicle id="16" depart="8.00">
        <route edges="44571133#1 44571133#2 46828659 261523807 4811724#0 4811724#1 67979364 43797351#0 43797351#1 43797350#0 43797350#1 43797350#2 43797350#3 43797350#4 43797350#5 43797350#6 43797350#7 43797350#8 43797350#9 7972161#2 7972161#3 7972167 7726298#0 7972172#1 7972172#2 285582145#2 285582145#3 285582145#4 285582145#5 43405579#1 43405580 29419688 44360624#0 44360624#1 43405581 43407377#0 43407377#1 179267061#0 179267061#1 179267061#2 -44572474#1 -44572474#0 -44572472#1 -44572472#0 44572473#0 23614622#3 4638447 109462892 44508938"/>
    </vehicle>
    <vehicle id="18" depart="9.00">
        <route edges="71079644#0 62298639#0 23500574#1 -44536100#5 31785076#2 31785076#3 31785076#4 4078618#0 4078618#1 4078618#2 4078618#3 43407376 29975003 29974988#0 29974988#1 29974988#2 43407378 43405576#0 37352456#0 37352456#1 37352456#2 112538808 131443347#0 131443347#1 131443348#0 131443348#1 131431688#0 131431688#1 37352455"/>
    </vehicle>
    <vehicle id="19" depart="9.50">
        <route edges="37018407#4 43797348#0 43797348#1 136126732#0 136126732#1 128089312 4363467#0 4363467#1 67979364 4363473#0 4363473#1 4363473#2 4363473#3 194091528#0 194091528#1 78329887 4487673#0 4487673#1 4487673#2 194091507#0 194091507#1 194091507#2 288004303#0 288004303#1 288004303#2 290792862#0 290792862#1 246920055 4812687#0 4812687#1 4812687#2"/>
    </vehicle>
    <vehicle id="20" depart="10.00">
        <route edges="7732913#6 49016403 4346292#9 4346292#13 4346292#14 4346292#15 -41699453#4 -41699453#3 -41699453#2 -41699453#0 -4263086 -168406444 -7972315#1 -7972315#0 79483254 4487676 31053358#0 31053358#1 7971923#0 7971923#1 7971923#2 17760812#0 17760812#1 17760808 79483259#0 79483259#1 79483259#2 4487153#3 45757392 -82280716 7642939#0 7642939#1 7642939#2 7642939#3 80429289 7732105#0 7732105#1 7732105#3 7732110#0 7732110#1 7732110#3 61678014#0 61678014#1 61678014#2 61678014#3 61678014#4 61678014#5 61678014#6 61678014#7 61678014#8 61678014#9 4950751#1 136736904"/>
    </vehicle>
    <vehicle id="21" depart="10.50">
        <route edges="43405581 43407377#0 43407377#1 179267061#0 179267061#1 179267061#2 4353021#0 4353021#1 4353021#2 4526341#4 4526341#5 4526341#6 4526341#7 4526341#8 109462887#0"/>
    </vehicle>
    <vehicle id="22" depart="11.00">
        <route edges="7972448#4 107083786 -7972452#0 24535747#0 24535747#1 32606920 32666310#0 32666310#1 32666310#2 43410318#0 43410318#1 4291302#0 4291302#1 4291302#2 4291302#3 4291302#4 4291302#5 4291302#6 4291302#7 4291302#8 4291302#9 44508932#0 44508932#1 43759864#0 7972776#0 7972776#1 7972776#2 7972776#3 7972776#4 7972776#5 23573546#0 23573546#1 23573546#2 23573546#3 23573546#4 23573546#5 23573546#6 23573546#7 23573546#8 23573546#9 23573546#10 -44572475#2 -44572475#1 -44572472#1 -44572472#0"/>
    </vehicle>
    <vehicle id="24" depart="12.00">
        <route edges="4346299#0 7971493#0 7971493#1 7971493#2 7971496#1 255825102 155872373#1 30674933#1 7971488#0 7971488#1 7971488#2 30674611 262951801#0 262951801#1 262951801#2 262951801#3 262951801#4 262951801#5 262951801#6 262951801#7 262951801#8 262951801#9 262951801#10 262951801#11 262951801#12 136126732#0 136126732#1 128089312 28906806#0 28906806#1 4350217 243658862#0 243658862#1 243658862#2 96050207#0 96050207#1 44704753#0 44704753#1 44704753#2 41966991#0 41966991#1 41966991#2 41966991#3 41966991#4 44658157 43199419 4351103#0 4351103#1 43199402#0 43199402#1 43199402#2 43199402#3 43199402#4 43199402#5 131451857#0 131451857#2 131451857#3 131451857#4 70674603#3 47572011#1 47572011#2 -70674357#6"/>
    </vehicle>
    <vehicle id="25" depart="12.50">
        <route edges="166291825#2 166291825#3 4350218#4 4350218#5 4350218#6 41966992 44571128#0 44571128#1 44571128#2 44571128#3 44571128#4 44571128#5 35952872 4811724#0 4811724#1 67979364 43797351#0 43797351#1 43797350#0 43797350#1 43797350#2 43797350#3 43797350#4 43797350#5 43797350#6 43797350#7 43797350#8 43797350#9 30674619#0 30674619#1 30674619#2 243991596#0 243991596#1 243991596#2 131751221#0 131751221#1 240352170#0 240352170#1 4363468#0 4363468#1 4363468#2 112538796#0 112538796#1 112538796#2 112538796#3 -44737270#0 -31093152#1 -31093152#0 -4487498#4 -4487498#2 -4487498#1 -4487498#0 4487680 76809473#0 76809473#1 174851638 174851637 -44884571#3 -44884571#2 -44884571#1 -44884571#0 -34083900 -32606916#1 -32606916#0 32606920 32666310#0"/>
    </vehicle>
    <vehicle id="26" depart="13.00">
        <route edges="7972550 7972538 29487600 7972545 30674933#1 7971488#0 7971488#1 7971488#2 30674611 262951801#0 262951801#1 262951801#2 262951801#3 262951801#4 262951801#5 262951801#6 262951801#7 262951801#8 262951801#9 262951801#10 262951801#11 262951801#12 136126732#0 136126732#1 128089312 4363467#0 4363467#1 67979364 4363473#0 4363473#1 4363473#2 4363473#3 194091528#0 194091528#1 78329887 44532635#0 44532635#1 44532635#2 44532635#3 179212415 -173020852#1 -173020848#4 -173020848#3 -173020848#2 -173020848#1 -173020848#0 38755270#0 38755270#1 38755270#2 261837216#4 261837216#6 4812225#1 -4812307 -38755260"/>
    </vehicle>
    <vehicle id="28" depart="14.00">
        <route edges="4078616#3 4635107#0 4635107#1 4635107#2 4078607#1 4078607#2 4078607#3 293279892#0 293279892#1 292948168#0 292948168#1 292948168#2 4078618#0 4078618#1 4078618#2 4078618#3 43407376 29975003 29974988#0 29974988#1 29974988#2 43407378 43405576#0 37352456#0 37352456#1 37352456#2 112538808 131443347#0 131443347#1 131443348#0 131443348#1 4349010#0 4349010#1 44288721#0 44288721#1 44288721#2 44288721#4 44288721#5 44288721#6 44288721#7 128089326#0 7971488#2 30674611 262951801#0 262951801#1 262951801#2 262951801#3 262951801#4 262951801#5 82567673#0 82567673#1 82567670#0 82567670#1 7972664#0 7972664#1 174811786#1 7972665#2 7972669"/>
    </vehicle>
    <vehicle id="29" depart="14.50">
        <route edges="4811739 28951430 37018409 194091528#0 194091528#1 78329887 41900597#0 41900597#1 4811757#0 4811757#1 37018407#0 37018407#1 37018407#2 37018407#3 37018407#4 43797350#0 43797350#1 43797350#2 43797350#3 43797350#4 43797350#5 43797350#6 43797350#7 43797350#8 43797350#9 30674619#0 104864852 7726295#1 37352453#0 128089316 4363472#1 128089317 37352453#2 37352453#3 128089318 -30674933#1 -155872373#1 -155872373#0 -104864842#2 -104864842#1 -104864842#0 43410309 43759728#0 43759728#1 43759728#2 43759728#3 43410310 7642926#0 7642926#1 7642926#2 7642926#3 4487807#0 4487807#1 265509099 265509096 7712530#3 7712530#4"/>
    </vehicle>
    <vehicle id="30" depart="15.00">
        <route edges="5930467#0 4487801#2 4616510#2 174841900#1 31739739#0 31739739#1 23407031#3 23407031#4 23407031#5 23407031#6 4487679#5 4487679#6 4487679#7 4487679#8 4487679#9 4487679#10 4487679#11 76809470#0 43410314#1 43410318#0 43410318#1 4334159 4352977#0 -83668214#2 -83668214#1 243497102#0 243497102#1 243497102#2 14463274#0 14463274#1 14463274#2 14463274#3 14463274#4 164369277#0 164369277#1 106343228#0 106343228#1 43405584#1 43405584#2 43405584#3 43405585#0 23573143#2"/>
    </vehicle>
    <vehicle id="31" depart="15.50">
        <route edges="4328799 7642926#2 77339398#1 32597088#3 46098085#0 46098085#1 4346299#0 4346299#1 4346299#2 4346299#3 242547871 131431688#0 131431688#1 37352455 43759849#0 43759849#1 43759849#2 131443349 43405579#0 43405579#1 43405580 29419688 44360624#0 44360624#1 43405581 43407377#0 43407377#1 179267061#0 179267061#1 179267061#2 -44572474#1 -44572474#0 -44572472#1 -44572472#0 -44335829#1 -44335829#0"/>
    </vehicle>
    <vehicle id="32" depart="16.00">
        <route edges="5856621#1 7973710#1 7972312#1 7972312#3 7972312#4 -49016411#1 -49016411#0 -44614882 7732076#1 7732076#2 41699477 7732075 130468269 34095408#0 34095408#1 -168406444 -7972315#1 -7972315#0 79483254 4487676 31053358#0 31053358#1 7971923#0 7971923#1 7971923#2 17760812#0 17760812#1 17760808 79483259#0 79483259#1 79483259#2 4487153#3 45757392 -239499978 -30993228#1 -293712003#4 -293712003#3 -293712003#2 -293712003#1 -293712003#0 -293712004#9 -293712004#7 -293712004#6 -293712004#5 -293712004#4 -293712004#3 -293712004#2 -293712004#1 -293712004#0 -4487156 258516124#0 258516124#1 258516124#2 43410324#1 131443346#0 131443346#1 33580892 8098313#0 8098363#0 8098363#1 14460169 4950642#2"/>
    </vehicle>
    <vehicle id="33" depart="16.50">
        <route edges="31784764#0 43405586#0 43405586#1 109462878#0 109462878#1 109462878#2 109462878#3 109462878#4 109462878#5 109462878#6 109462878#7 109462878#8 109462878#9 109462878#10 109462878#11 137216215#0 137216215#1 44572476 44572477#0 44572477#1 44572472#0 44572472#1 44572475#1"/>
    </vehicle>
    <vehicle id="34" depart="17.00">
        <route edges="-4646989#8 -4646989#6 -4646989#5 -4646989#4 4814487#2 4814487#3 4646678#5 4646678#6 288004304#3"/>
    </vehicle>
    <vehicle id="35" depart="17.50">
        <route edges="175962801#4 166226117#1 166226117#2 7726320 131451865#0 131451865#1 131451865#2 131451865#3 131451865#4 68175003 4350216 43199438 130583886 4351124#0 4351124#1 4351124#2 44704750#0 44704750#1 44704750#2 44704750#3 44704750#4 44704750#5 44571130#1 44571130#2 4824596#0 4824596#1 4824596#2 44571132#0 4824648#2 46828658"/>
    </vehicle>
    <vehicle id="36" depart="18.00">
        <route edges="26630160#3 26630160#4 4950794#1 72247241#3 72247241#4 72247241#5 58531295#0 58531295#1 58531295#2 58531295#3 4487124#0 4389653#0 4389653#1 4389653#2 4389653#3 4487126#3 4487126#4 4487126#5 4950756#2 4950756#1 4950756#0 293712004#5 293712004#6 293712004#7 293712004#9 293712003#0 293712003#1 293712003#2 293712003#3 293712003#4 32597086#0 32597086#1 32597086#2 32597086#3 32597086#4 32597086#5 32597086#6 32597086#7 32597086#8 32597086#9 32597086#10 32597086#11 32597086#12 32597086#13 155551744#0 155551744#1 155551744#2 155551744#3 32597088#0 32597088#1 32597088#2 32597088#3 4328843 46098088#0 46098088#1 261728552 43410310 43410311 7971500#0 7971500#1 7971499#0 7971499#1 7971499#2 30676408 30676403#0 30676403#1 30676403#2 29485945#1 29487193 29486859 4328795#5 4328795#6 4328795#7 30650268#0 66835311 70955486#0 70955486#1 31262321#0 31262321#1 31262321#2 31262321#3 34095408#0 34095408#1 4263086 41699453#0 41699453#2 41699453#3 41699453#4 4328606#0"/>
    </vehicle>
    <vehicle id="37" depart="18.50">
        <route edges="136124311#0 136124311#1 136124311#2 136124311#3 164369270#0 164369270#1 164369267#0 164369267#1 43759863#3 164369268 164369267#4 164369267#5 164369269#0 164369269#1 4334163#0 4334163#1 44508932#0 44508932#1 112538817#0 112538817#1 112538817#2 44737269#0 44737269#1 44737269#2 44737269#3 243496118#0 243496118#1 131443348#0 131443348#1 4349010#0 4349010#1 44288721#0 44288721#1 44288721#2 44288721#4 44288721#5 44288721#6 44288721#7 128089326#0 7971488#2 30674611 262951801#0 262951801#1 262951801#2 262951801#3 262951801#4 262951801#5 262951801#6 262951801#7 262951801#8 262951801#9 262951801#10 262951801#11 262951801#12 136126732#0 136126732#1 128089312 28906806#0 28906806#1 44571134#0 44571134#1 45316409 239205928#0 239205928#1 239205928#2 4824643#0 4824643#1 4824643#2 131700116"/>
    </vehicle>
    <vehicle id="38" depart="19.00">
        <route edges="83668214#1 83668214#2 43798350 43410316 -43410314#1 -76809470#0 -174851637 -174851638 -76809473#1 -76809473#0 4487670#0 4487670#1 4487670#2 4487670#3 4487670#4 4487670#5 4487670#6 4487670#7 4487670#8 112538828#4 46098085#1 4346299#0 4346299#1"/>
    </vehicle>
    <vehicle id="39" depart="19.50">
        <route edges="152458474#1 152458474#2 31053324#2 4487154 82280716 4487158#0 32597086#2 32597086#3 32597086#4 32597086#5 32597086#6 32597086#7 32597086#8 32597086#9 32597086#10 32597086#11 32597086#12 32597086#13 155551744#0 155551744#1 155551744#2 155551744#3 32597088#0 32597088#1 32597088#2 32597088#3 46098085#0 46098085#1 4346299#0 4346299#1 4346299#2 4346299#3 242547871 131431688#0 131431688#1 37352455 27396510#0 27396510#1 43759853#0 43759853#1 252387586#0 252387586#1 252387586#2 252387586#3 252387586#4 44737268#0 44737268#1 44737268#2 44737268#3 44737268#4 131451859 7971513 44508935 136124312#0 136124312#1 252387427#0 252387427#1 252387427#2"/>
    </vehicle>
    <vehicle id="40" depart="20.00">
        <route edges="32897811 174851639#0 4487808#0 4487679#11 76809470#0 43410314#1 43410318#0 43410318#1"/>
    </vehicle>
    <vehicle id="41" depart="20.50">
        <route edges="-83668214#1 24585667#4 24585667#5 24585667#6 24585667#7 7972364#1 7972364#2 7972364#3 4487670#0 4487670#1 4487670#2 4487670#3 4487670#4 4487670#5 4487670#6 4487670#7 4487670#8 112538828#4 168404659 46098088#0 46098088#1 261728552 43410310 43410311 7971500#0 7971500#1 7971499#0 7971499#1 7971499#2 30676408 30676403#0 30676403#1 30676403#2 29485945#1 29487193 29486859 4328795#5 7642974 4328769#0 4328770#0 49016397#1 49016397#2 49016397#3 34095413 23689800#0 23689800#1 23689800#2 23689800#3 7734393 23689803#0 23689803#1 49016399#0 49016399#1 7734389#2 166226116 7734389#0"/>
    </vehicle>
    <vehicle id="42" depart="21.00">
        <route edges="26630160#3 26630160#4 4950794#1 72247241#3 72247241#4 72247241#5 58531295#0 58531295#1 58531295#2 58531295#3 4487124#0 4389653#0 4389653#1 4389653#2 4389653#3 4487126#3 4487126#4 4487126#5 4950756#2 4950756#1 4950756#0 293712004#5 293712004#6 293712004#7 293712004#9 293712003#0 293712003#1 293712003#2 293712003#3 293712003#4 32597086#0 32597086#1 32597086#2 32597086#3 32597086#4 32597086#5 32597086#6 32597086#7 32597086#8 32597086#9 32597086#10 32597086#11 32597086#12 32597086#13 155551744#0 155551744#1 155551744#2 155551744#3 32597088#0 32597088#1 32597088#2 32597088#3 4328843 46098088#0 46098088#1 261728552 43410310 43410311 7971500#0 7971500#1 7971499#0 7971499#1 7971499#2 30676408 30676403#0 30676403#1 30676403#2 29485945#1 29487193 29486859 4328795#5 7642974 4328769#0 4328770#0 49016397#1 49016397#2 49016397#3 34095413 23689800#0 7972752#0 7972752#1 7972752#2 7642998 -7734391"/>
    </vehicle>
    <vehicle id="43" depart="21.50">
        <route edges="4078596#1 4078596#2 29974650#0 29974650#1 23076536#0 23076536#1 37018407#3 37018407#4 43797348#0 43797348#1 136126732#0 136126732#1 128089312 28906806#0 28906806#1 4350217 243658862#0 243658862#1 243658862#2 96050207#0 96050207#1 44704753#0 44704753#1 44704753#2 41966991#0 41966991#1 41966991#2 41966991#3 41966991#4 44658157 43199459#0 43199459#1 71054748#0 142423898#0 142423898#1 142423898#2 142423898#5 142423898#6 142423898#7 142423898#8 142423898#9 142423898#10 142423898#11 142423898#13 142423898#15 34095416"/>
    </vehicle>
    <vehicle id="44" depart="22.00">
        <route edges="16322052 -104864842#1 -104864842#0 43410309 43759728#0 43759728#1 43759728#2 43759728#3 43410310 7642926#0 7642926#1 7642926#2 7642926#3 4487807#0 4487807#1 265509099 265509096 7712530#3 7712530#4 31739739#1 287412176 29620789#0 29620789#1 29620789#2"/>
    </vehicle>
    <vehicle id="45" depart="22.50">
        <route edges="194093382#1 -53282473#1 -53282473#0 -53282476#5 -29001984#0 -194093377#1 -194093377#0 -194093377#3 -29001980#1 -29001980#0 111417886#1 290792858#3 290792858#4 290792858#5 42967971#0 42967971#1 44532636#0 44532636#1 4811757#0 4811757#1 37018407#0 37018407#1 37018407#2 37018407#3 37018407#4 43797350#0 43797350#1 43797350#2 43797350#3 43797350#4 43797350#5 43797350#6 43797350#7 43797350#8 43797350#9 30674619#0 104864852 7726295#1 37352453#0 128089316 4363472#1 128089317 37352453#2 37352453#3 128089318 -30674933#1 -155872373#1 -155872373#0 -104864842#2 -104864842#1 -104864842#0 43410309 43759728#0 43759728#1 43759728#2 43759728#3 43410310 7642926#0 7642926#1 7642926#2 7642926#3 43410313#0 43410313#1 43410312#0 43410312#1 43410312#2 43410312#3 155551743#0 155551743#1 155551743#2 155551743#3 155551743#4 155551743#5 239499976#0 239499976#1 239499976#2 239499976#3 239499976#4 239499976#5 239499976#6 43410326#0 43410326#1 43410326#2 43410326#3 7732105#0 7732105#1 7732105#3 7732110#0 7732110#1 7732110#3 61678014#0 61678014#1 61678014#2 61678014#3 4101281#0 4101281#1 4101281#2 4101281#3"/>
    </vehicle>
    <vehicle id="47" depart="23.50">
        <route edges="46828658 72133514#0 72133514#1 44571133#0 44571133#1 44571133#2 46828659 261523807 4811724#0 4811724#1 67979364 43797351#0 43797351#1 43797350#0 43797350#1 43797350#2 43797350#3 43797350#4 43797350#5 43797350#6 43797350#7 43797350#8 43797350#9 30674619#0 30674619#1 30674619#2 243991596#0 243991596#1 243991596#2 131751221#0 131751221#1 240352170#0 240352170#1 37352455 27396510#0 27396510#1 43759853#0 43759853#1 252387586#0 252387586#1 252387586#2 252387586#3 252387586#4 44737268#0 44737268#1 44737268#2 44737268#3 44737268#4 131451859 7971513 44508935 136124312#0 136124312#1 252387427#0 252387427#1 252387427#2 252387427#3 252387427#4 252387427#5 164369271#0 164369271#1 164369277#0 164369277#1 106343228#0 106343228#1"/>
    </vehicle>
    <vehicle id="48" depart="24.00">
        <route edges="252387586#1 252387586#2 252387586#3 7972771#0 7972771#1 7972771#2 112538800#8 112538800#9 43405576#0 131443349 29974669#0 29974669#1 29974669#2 29974669#4 29974669#5 29974669#6 29974669#7 29974669#8 29974669#9 29974669#10 29974669#11 29974669#12 29974652#0 29974652#1 29974652#7 29974652#8 29974653#0 29974653#1 41900600#0 41900600#1 78329887 44532635#0 44532635#1 44532635#2 44532635#3 179212415 -173020852#1 -173020848#4 -173020848#3 -173020848#2 -173020848#1 -173020848#0 38755270#0 38755270#1 38755270#2 261837216#4 261837216#6 261837216#9 261837216#0 261837216#2 4363474#1 4363474#2 4824757#0 4824757#1 4824757#2 -30747806"/>
    </vehicle>
    <vehicle id="49" depart="24.50">
        <route edges="30675414#4 43759849#2 37352456#0 37352456#1 37352456#2 43759853#0 43759853#1 252387586#0 252387586#1 252387586#2 252387586#3 252387586#4 -44737270#1 -44737270#0 -31093152#1 -31093152#0 -4487498#4 -4487498#2 -4487498#1 -4487498#0 4487680 76809473#0 76809473#1 174851638 174851637 -44884571#3 -44884571#2 -163743120 -7642988#4 -7642988#3 -7642988#2 -7642988#1 -7642988#0 4101283#0 281267232#0"/>
    </vehicle>
    <vehicle id="50" depart="25.00">
        <route edges="-44335665#3 -44335665#2 108878913#0 108878913#1 108878913#2 279973664#0 279973664#1 279973664#2 279973664#3 279973664#4 -44493805#2 -44493805#1 -44493805#0 15245060#0 15245060#1 262609367#2 44493804#0 44493804#1 44493804#2 44493804#3 44493804#4 131547190#0 131547190#1 44536101#0 44536099#6 4078601 293279892#0 293279892#1 292948168#0 292948168#1 292948168#2 4688562#0 4688562#1 44572475#1 44572475#2 137206573 137216216#0 137216216#1 137216216#2 137216216#3 -109462900#1 -109462900#0 -109462895 -109462887#1 -109462887#0 -109462899 -198644581#1 -109462894#2 4261173#0 4261173#1 4261173#2 4261173#3 4261173#4 131450470 44508936#0 44508936#1 4291303#0 4291303#1 4291303#2"/>
    </vehicle>
    <vehicle id="51" depart="25.50">
        <route edges="285582145#4 285582145#5 43405579#1 43405580 29419688 44360624#0 44360624#1 4526341#0 80789130#0 80789130#1 29974988#1 29974988#2 43407378 43405576#0 37352456#0 37352456#1 37352456#2 112538808 131443347#0 131443347#1 131443348#0 131443348#1 4349010#0 4349010#1 44288721#0 44288721#1 44288721#2 44288721#4 44288721#5 44288721#6 44288721#7 128089326#0 7971488#2 131431691 4363472#3 7972161#0 7972161#1 7972161#2 7972161#3"/>
    </vehicle>
    <vehicle id="52" depart="26.00">
        <route edges="23578045#0 23578045#1 44337601#0 44337601#1 41699421#8 41699421#9 41699421#11 4346292#0 4346292#2 4346292#3 4346292#6 4346292#7 4346292#8 4346292#9 4346292#13 4346292#14 4346292#15 -41699453#4 -41699453#3 -41699453#2 -41699453#0 41699477 41699518 31262349 7642979#0 7642979#1 43626132 102865404#0 102865404#1 82552700 4328790#1 4328790#2 4328790#3 4328790#4 4328790#5 4328790#6 4328790#7 4328790#8 31261348#0 31261348#1 31261348#2 31261348#3 43759721 43759728#0 43759728#1 43759728#2 43759728#3 43759793#0 43759793#1 4346299#0 4346299#1 4346299#2 4346299#3 242547871 131431688#0 131431688#1 4363468#0 248379688 131443347#1 131443348#0"/>
    </vehicle>
    <vehicle id="53" depart="26.50">
        <route edges="4101283#4 4101283#5 -293712004#2 -293712004#1 -293712004#0 -4487156 258516124#0 258516124#1 72247241#10 4101286#0 4101286#1 4101286#2 4101286#3 7643014#0 7643014#1 245723753 4307821#0 4307821#1 4307821#2 32606920 32666310#0 32666310#1 32666310#2 43410318#0 43410318#1 4334159 4352977#0 -83668214#2 -83668214#1 243497102#0 243497102#1 243497102#2 14463274#0 14463274#1 14463274#2 14463274#3 14463274#4 164369277#0 164369277#1 106343228#0 106343228#1 43405582#0"/>
    </vehicle>
    <vehicle id="54" depart="27.00">