<?xml version="1.0" encoding="UTF-8"?>

<!-- generated on Wed Jul 30 21:08:11 2014 by SUMO polyconvert Version 0.17.1
<?xml version="1.0" encoding="UTF-8"?>

<configuration xmlns:xsi="http://www.w3.org/2001/XMLSchema-instance" xsi:noNamespaceSchemaLocation="http://sumo.sf.net/xsd/polyconvertConfiguration.xsd">

    <input>
        <net-file value="/home/pierpaolo/Scrivania/scriptMirco/scriptMirco/facilitatore/v0.4/v0.4/net/Madrid5/Madrid5.net.xml"/>
        <osm-files value="/home/pierpaolo/Scrivania/scriptMirco/scriptMirco/facilitatore/v0.4/v0.4/Madrid5.osm"/>
        <type-file value="requiredFiles/typemap_example.xml"/>
    </input>

    <output>
        <output-file value="/home/pierpaolo/Scrivania/scriptMirco/scriptMirco/facilitatore/v0.4/v0.4/net/Madrid5/Madrid5.poly.xml"/>
    </output>

    <pruning>
        <prune.in-net value="true"/>
    </pruning>

    <report>
        <verbose value="true"/>
    </report>

</configuration>
-->

<shapes>
    <poly id="102238071" type="leisure" color="207,245,201" fill="1" layer="-2.00" shape="797.50,1679.89 810.38,1737.18 815.36,1741.40 821.47,1748.76 824.32,1710.77 830.24,1688.33 835.43,1690.47 852.45,1665.29 846.12,1659.88 838.75,1653.56 823.52,1660.67 817.03,1655.22 832.91,1587.23 828.63,1578.20 802.94,1581.64 797.07,1581.90 796.95,1624.54 797.06,1675.53 797.50,1679.89"/>
    <poly id="102865405" type="building" color="255,230,230" fill="1" layer="-1.00" shape="1225.60,2162.37 1220.73,2162.10 1220.87,2158.80 1222.25,2155.65 1224.56,2152.00 1227.70,2154.92 1226.01,2158.83 1225.60,2162.37"/>
    <poly id="102865409" type="building" color="255,230,230" fill="1" layer="-1.00" shape="698.99,1926.37 730.31,1987.16 719.79,1990.00 724.49,1999.39 717.61,2002.82 719.00,2005.54 707.03,2010.36 698.30,1995.29 690.51,1999.75 679.41,1981.47 645.20,1968.85 649.35,1958.67 652.33,1959.80 664.94,1917.62 698.99,1926.37"/>
    <poly id="102865410" type="building" color="255,230,230" fill="1" layer="-1.00" shape="1163.74,2316.95 1164.19,2300.36 1183.41,2301.37 1183.27,2313.60 1177.51,2313.39 1172.45,2313.32 1168.21,2313.13 1167.95,2317.13 1163.74,2316.95"/>
    <poly id="102865411" type="building" color="255,230,230" fill="1" layer="-1.00" shape="1242.14,2240.14 1257.57,2239.16 1257.48,2243.17 1263.46,2242.64 1264.56,2242.54 1265.31,2242.47 1265.46,2244.62 1264.03,2244.55 1264.10,2246.99 1263.19,2247.07 1257.68,2247.14 1257.81,2251.88 1261.37,2251.77 1261.80,2262.79 1242.82,2263.33 1242.14,2240.14"/>
    <poly id="103151390" type="leisure" color="207,245,201" fill="1" layer="-2.00" shape="752.30,1743.45 743.67,1740.69 742.13,1734.64 734.15,1725.05 729.89,1721.16 734.36,1713.83 748.17,1707.02 749.47,1718.57 750.70,1729.33 752.30,1743.45"/>
    <poly id="105461761" type="amenity" color="237,199,199" fill="1" layer="-1.00" shape="3322.72,2987.00 3330.34,2986.60 3337.29,2988.58 3340.31,2991.81 3341.02,3003.39 3350.38,3002.86 3349.78,2990.22 3347.10,2985.81 3348.72,2984.11 3348.25,2982.59 3346.32,2980.97 3346.48,2979.62 3340.29,2975.06 3336.57,2975.36 3335.50,2975.99 3332.34,2975.28 3322.07,2975.98 3322.72,2987.00"/>
    <poly id="105461761#1" type="building" color="255,230,230" fill="1" layer="-1.00" shape="3322.72,2987.00 3330.34,2986.60 3337.29,2988.58 3340.31,2991.81 3341.02,3003.39 3350.38,3002.86 3349.78,2990.22 3347.10,2985.81 3348.72,2984.11 3348.25,2982.59 3346.32,2980.97 3346.48,2979.62 3340.29,2975.06 3336.57,2975.36 3335.50,2975.99 3332.34,2975.28 3322.07,2975.98 3322.72,2987.00"/>
    <poly id="105461764" type="building" color="255,230,230" fill="1" layer="-1.00" shape="3304.08,2977.35 3322.07,2975.98 3322.72,2987.00 3320.80,2987.24 3320.24,2987.98 3320.56,2993.20 3321.19,2993.75 3324.12,2993.85 3324.50,2998.51 3323.10,3000.15 3321.76,3001.85 3321.32,3003.49 3306.09,3004.32 3305.77,2998.90 3305.51,2994.66 3307.59,2994.42 3308.27,2993.57 3307.95,2988.91 3307.49,2988.18 3304.78,2988.32 3304.08,2977.35"/>
    <poly id="107465468" type="leisure" color="207,245,201" fill="1" layer="-2.00" shape="453.02,2124.31 477.43,2116.35 483.99,2134.52 487.17,2148.34 461.52,2154.67 453.02,2124.31"/>
    <poly id="107467871" type="leisure" color="207,245,201" fill="1" layer="-2.00" shape="565.56,1847.56 572.10,1836.69 598.59,1852.05 585.54,1861.00 577.44,1859.21 575.68,1853.95 565.56,1847.56"/>
    <poly id="108878832" type="leisure" color="207,245,201" fill="1" layer="-2.00" shape="457.16,886.79 450.73,887.06 450.41,873.52 463.90,873.51 464.27,880.23 457.42,880.50 457.16,886.79"/>
    <poly id="108878845" type="building" color="255,230,230" fill="1" layer="-1.00" shape="2572.42,1114.14 2567.11,1099.87 2616.76,1081.47 2621.98,1095.78 2572.42,1114.14"/>
    <poly id="108878847" type="building" color="255,230,230" fill="1" layer="-1.00" shape="2318.32,1517.39 2312.06,1509.68 2321.75,1501.62 2320.56,1500.26 2332.12,1490.79 2333.44,1492.29 2343.10,1484.25 2349.62,1492.23 2339.76,1500.03 2340.99,1501.66 2329.31,1511.16 2328.05,1509.66 2318.32,1517.39"/>
    <poly id="108878852" type="parking" color="184,184,179" fill="1" layer="-1.00" shape="2596.17,964.01 2476.50,1108.77 2486.32,1117.53 2529.31,1101.25 2523.86,1088.04 2540.44,1077.34 2538.45,1073.79 2567.32,1060.45 2569.77,1050.94 2596.83,1027.10 2614.04,1018.09 2628.22,1005.64 2628.72,1002.12 2625.18,998.84 2628.67,995.10 2596.17,964.01"/>
    <poly id="108878859" type="amenity" color="237,199,199" fill="1" layer="-1.00" shape="2569.53,1297.44 2578.43,1293.94 2578.20,1292.97 2595.67,1285.86 2599.24,1295.46 2602.41,1295.58 2605.65,1294.92 2608.86,1293.83 2612.06,1291.82 2614.44,1289.46 2610.77,1280.17 2628.97,1272.93 2629.50,1274.03 2638.42,1270.70 2631.26,1251.75 2622.23,1255.00 2622.63,1255.99 2601.51,1264.26 2600.75,1262.38 2592.30,1265.74 2592.80,1267.58 2571.70,1275.84 2571.45,1274.85 2562.25,1278.46 2569.53,1297.44"/>
    <poly id="108878859#1" type="building" color="255,230,230" fill="1" layer="-1.00" shape="2569.53,1297.44 2578.43,1293.94 2578.20,1292.97 2595.67,1285.86 2599.24,1295.46 2602.41,1295.58 2605.65,1294.92 2608.86,1293.83 2612.06,1291.82 2614.44,1289.46 2610.77,1280.17 2628.97,1272.93 2629.50,1274.03 2638.42,1270.70 2631.26,1251.75 2622.23,1255.00 2622.63,1255.99 2601.51,1264.26 2600.75,1262.38 2592.30,1265.74 2592.80,1267.58 2571.70,1275.84 2571.45,1274.85 2562.25,1278.46 2569.53,1297.44"/>
    <poly id="108878883" type="leisure" color="207,245,201" fill="1" layer="-2.00" shape="2489.88,1200.64 2523.19,1190.50 2551.71,1182.77 2519.21,1181.16 2489.88,1200.64"/>
    <poly id="108878891" type="amenity" color="237,199,199" fill="1" layer="-1.00" shape="2079.78,978.76 2077.98,978.86 2077.95,978.14 2061.30,979.66 2053.50,980.12 2053.83,985.80 2043.61,986.46 2043.31,981.67 2032.14,982.60 2031.22,971.31 2042.69,970.37 2042.25,965.71 2052.33,964.83 2052.63,970.16 2077.03,968.31 2077.07,967.59 2078.97,967.57 2079.78,978.76"/>
    <poly id="108878895" type="leisure" color="207,245,201" fill="1" layer="-2.00" shape="458.26,895.87 451.30,896.33 452.50,915.03 466.31,914.12 465.89,901.10 458.09,901.43 458.26,895.87"/>
    <poly id="108878896" type="building" color="255,230,230" fill="1" layer="-1.00" shape="2495.25,1142.55 2490.13,1128.82 2552.62,1105.72 2557.56,1119.65 2495.25,1142.55"/>
    <poly id="108878912" type="building" color="255,230,230" fill="1" layer="-1.00" shape="2712.61,1062.62 2707.80,1049.30 2798.77,1016.21 2803.47,1029.75 2712.61,1062.62"/>
    <poly id="108878921" type="leisure" color="207,245,201" fill="1" layer="-2.00" shape="2478.29,1165.00 2553.32,1137.25 2535.17,1150.65 2520.77,1164.04 2515.51,1167.03 2509.59,1167.49 2501.38,1166.55 2478.29,1165.00"/>
    <poly id="108878928" type="building" color="255,230,230" fill="1" layer="-1.00" shape="2042.70,1282.32 2069.61,1285.82 2064.61,1318.64 2051.36,1316.64 2051.43,1315.92 2046.82,1315.37 2046.07,1314.50 2046.85,1309.64 2046.02,1309.51 2048.48,1293.89 2041.14,1292.91 2042.70,1282.32"/>
    <poly id="108878935" type="leisure" color="207,245,201" fill="1" layer="-2.00" shape="469.26,872.50 485.56,872.41 485.03,883.86 477.01,883.83 477.61,879.09 469.65,879.30 469.26,872.50"/>
    <poly id="108878946" type="building" color="255,230,230" fill="1" layer="-1.00" shape="2636.06,1090.64 2631.30,1077.23 2693.79,1054.44 2698.68,1067.70 2636.06,1090.64"/>
    <poly id="108878956" type="building" color="255,230,230" fill="1" layer="-1.00" shape="2329.48,1332.89 2336.85,1341.58 2341.57,1347.32 2345.05,1349.04 2356.22,1354.72 2361.66,1354.81 2364.00,1354.86 2373.88,1355.01 2375.59,1307.54 2366.18,1303.27 2329.48,1332.89"/>
    <poly id="108878956#1" type="tourism" color="207,245,201" fill="1" layer="-2.00" shape="2329.48,1332.89 2336.85,1341.58 2341.57,1347.32 2345.05,1349.04 2356.22,1354.72 2361.66,1354.81 2364.00,1354.86 2373.88,1355.01 2375.59,1307.54 2366.18,1303.27 2329.48,1332.89"/>
    <poly id="112187780" type="building" color="255,230,230" fill="1" layer="-1.00" shape="1360.12,3280.05 1353.78,3302.26 1321.46,3306.86 1317.96,3279.14 1324.37,3278.39 1324.86,3282.09 1326.41,3281.99 1327.82,3291.61 1330.71,3291.92 1336.09,3291.19 1338.91,3287.17 1338.07,3281.35 1360.12,3280.05"/>
    <poly id="112187780#1" type="tourism" color="207,245,201" fill="1" layer="-2.00" shape="1360.12,3280.05 1353.78,3302.26 1321.46,3306.86 1317.96,3279.14 1324.37,3278.39 1324.86,3282.09 1326.41,3281.99 1327.82,3291.61 1330.71,3291.92 1336.09,3291.19 1338.91,3287.17 1338.07,3281.35 1360.12,3280.05"/>
    <poly id="112311603" type="building" color="255,230,230" fill="1" layer="-1.00" shape="1337.59,3064.78 1371.18,3054.40 1374.11,3056.67 1375.91,3092.74 1340.70,3090.63 1338.53,3071.63 1337.59,3064.78"/>
    <poly id="112311603#1" type="shop" color="237,199,255" fill="1" layer="-1.00" shape="1337.59,3064.78 1371.18,3054.40 1374.11,3056.67 1375.91,3092.74 1340.70,3090.63 1338.53,3071.63 1337.59,3064.78"/>
    <poly id="112316375" type="building" color="255,230,230" fill="1" layer="-1.00" shape="967.18,2686.73 966.32,2678.55 970.50,2670.76 973.59,2669.76 1004.23,2617.53 1017.41,2625.39 1033.56,2606.25 1035.13,2613.40 1048.76,2622.38 1049.44,2639.03 1035.40,2646.71 1031.65,2644.96 1015.70,2671.66 1007.48,2664.42 994.44,2674.16 994.82,2687.93 969.56,2691.57 969.53,2688.13 967.18,2686.73"/>
    <poly id="112316375#1" type="shop" color="237,199,255" fill="1" layer="-1.00" shape="967.18,2686.73 966.32,2678.55 970.50,2670.76 973.59,2669.76 1004.23,2617.53 1017.41,2625.39 1033.56,2606.25 1035.13,2613.40 1048.76,2622.38 1049.44,2639.03 1035.40,2646.71 1031.65,2644.96 1015.70,2671.66 1007.48,2664.42 994.44,2674.16 994.82,2687.93 969.56,2691.57 969.53,2688.13 967.18,2686.73"/>
    <poly id="112478143" type="amenity" color="237,199,199" fill="1" layer="-1.00" shape="2050.35,2431.74 2051.25,2439.96 2051.76,2439.93 2054.84,2465.68 2054.52,2465.65 2055.74,2473.93 2068.75,2473.13 2068.70,2472.43 2096.16,2470.67 2096.15,2471.37 2104.16,2470.92 2104.09,2470.08 2131.64,2468.24 2131.72,2468.99 2144.41,2468.19 2144.59,2459.77 2144.20,2459.77 2144.56,2442.19 2145.04,2442.10 2145.19,2433.54 2134.16,2433.35 2129.28,2433.26 2129.43,2434.83 2112.61,2435.71 2112.30,2432.97 2111.13,2432.96 2102.90,2432.81 2103.07,2436.29 2092.76,2436.93 2092.47,2432.54 2092.04,2432.53 2082.96,2432.36 2083.22,2437.50 2072.13,2438.15 2071.95,2432.15 2050.35,2431.74"/>
    <poly id="112478143#1" type="building" color="255,230,230" fill="1" layer="-1.00" shape="2050.35,2431.74 2051.25,2439.96 2051.76,2439.93 2054.84,2465.68 2054.52,2465.65 2055.74,2473.93 2068.75,2473.13 2068.70,2472.43 2096.16,2470.67 2096.15,2471.37 2104.16,2470.92 2104.09,2470.08 2131.64,2468.24 2131.72,2468.99 2144.41,2468.19 2144.59,2459.77 2144.20,2459.77 2144.56,2442.19 2145.04,2442.10 2145.19,2433.54 2134.16,2433.35 2129.28,2433.26 2129.43,2434.83 2112.61,2435.71 2112.30,2432.97 2111.13,2432.96 2102.90,2432.81 2103.07,2436.29 2092.76,2436.93 2092.47,2432.54 2092.04,2432.53 2082.96,2432.36 2083.22,2437.50 2072.13,2438.15 2071.95,2432.15 2050.35,2431.74"/>
    <poly id="112478143#2" type="military" color="153,153,92" fill="1" layer="-3.00" shape="2050.35,2431.74 2051.25,2439.96 2051.76,2439.93 2054.84,2465.68 2054.52,2465.65 2055.74,2473.93 2068.75,2473.13 2068.70,2472.43 2096.16,2470.67 2096.15,2471.37 2104.16,2470.92 2104.09,2470.08 2131.64,2468.24 2131.72,2468.99 2144.41,2468.19 2144.59,2459.77 2144.20,2459.77 2144.56,2442.19 2145.04,2442.10 2145.19,2433.54 2134.16,2433.35 2129.28,2433.26 2129.43,2434.83 2112.61,2435.71 2112.30,2432.97 2111.13,2432.96 2102.90,2432.81 2103.07,2436.29 2092.76,2436.93 2092.47,2432.54 2092.04,2432.53 2082.96,2432.36 2083.22,2437.50 2072.13,2438.15 2071.95,2432.15 2050.35,2431.74"/>
    <poly id="113426843" type="amenity" color="237,199,199" fill="1" layer="-1.00" shape="2234.16,3821.33 2246.57,3818.90 2233.72,3753.77 2221.32,3756.19 2234.16,3821.33"/>
    <poly id="113426843#1" type="building" color="255,230,230" fill="1" layer="-1.00" shape="2234.16,3821.33 2246.57,3818.90 2233.72,3753.77 2221.32,3756.19 2234.16,3821.33"/>
    <poly id="113426844" type="building" color="255,230,230" fill="1" layer="-1.00" shape="2256.18,3812.06 2293.93,3806.03 2289.44,3778.15 2251.69,3784.17 2256.18,3812.06"/>
    <poly id="113426849" type="amenity" color="237,199,199" fill="1" layer="-1.00" shape="2214.55,3749.25 2249.25,3746.16 2258.38,3745.35 2299.22,3741.72 2310.46,3744.91 2330.85,3849.58 2324.77,3846.99 2286.81,3830.80 2272.75,3824.82 2263.46,3825.93 2233.00,3829.60 2232.10,3825.68 2226.33,3800.56 2214.55,3749.25"/>
    <poly id="113624223" type="building" color="255,230,230" fill="1" layer="-1.00" shape="2880.33,1267.39 2882.80,1256.09 2879.06,1255.23 2878.91,1255.19 2880.16,1249.29 2880.31,1249.32 2884.02,1250.03 2886.05,1240.71 2844.18,1231.63 2840.62,1233.94 2835.43,1257.87 2880.33,1267.39"/>
    <poly id="113624223#1" type="tourism" color="207,245,201" fill="1" layer="-2.00" shape="2880.33,1267.39 2882.80,1256.09 2879.06,1255.23 2878.91,1255.19 2880.16,1249.29 2880.31,1249.32 2884.02,1250.03 2886.05,1240.71 2844.18,1231.63 2840.62,1233.94 2835.43,1257.87 2880.33,1267.39"/>
    <poly id="115982352" type="leisure" color="207,245,201" fill="1" layer="-2.00" shape="2388.83,2716.92 2378.19,2713.53 2368.88,2703.94 2364.39,2691.76 2365.65,2678.17 2372.84,2667.85 2382.33,2660.83 2395.35,2658.77 2409.62,2663.49 2418.95,2673.83 2427.08,2683.35 2438.57,2693.37 2462.67,2704.42 2435.92,2704.63 2422.78,2707.79 2408.04,2713.45 2398.68,2716.84 2388.83,2716.92"/>
    <poly id="115982358" type="building" color="255,230,230" fill="1" layer="-1.00" shape="586.68,1163.88 581.37,1165.24 575.17,1166.85 574.60,1164.68 559.29,1168.53 560.87,1174.58 547.45,1177.86 545.06,1173.98 543.78,1168.92 542.03,1169.35 540.84,1167.59 539.69,1165.78 538.54,1163.85 583.69,1152.32 586.68,1163.88"/>
    <poly id="115982399" type="building" color="255,230,230" fill="1" layer="-1.00" shape="2169.02,3323.78 2174.66,3339.23 2191.79,3333.63 2191.35,3330.17 2198.12,3327.87 2202.55,3339.93 2218.23,3335.14 2212.60,3317.41 2196.96,3322.38 2196.83,3325.59 2190.60,3327.64 2187.14,3317.83 2169.02,3323.78"/>
    <poly id="115982406" type="leisure" color="207,245,201" fill="1" layer="-2.00" shape="2855.39,2806.50 2934.06,2823.57 2922.30,2824.49 2904.68,2830.48 2891.85,2836.63 2854.66,2808.61 2855.39,2806.50"/>
    <poly id="115982410" type="amenity" color="237,199,199" fill="1" layer="-1.00" shape="744.97,1211.22 777.52,1214.76 779.41,1179.30 749.72,1186.56 744.97,1211.22"/>
    <poly id="115982410#1" type="building" color="255,230,230" fill="1" layer="-1.00" shape="744.97,1211.22 777.52,1214.76 779.41,1179.30 749.72,1186.56 744.97,1211.22"/>
    <poly id="115982417" type="leisure" color="207,245,201" fill="1" layer="-2.00" shape="2923.69,2862.00 2924.05,2849.08 2926.76,2841.72 2931.13,2836.20 2905.64,2846.02 2906.11,2848.67 2923.69,2862.00"/>
    <poly id="116868006" type="building" color="255,230,230" fill="1" layer="-1.00" shape="2111.15,3128.19 2121.88,3163.05 2131.29,3160.17 2126.04,3143.12 2120.76,3126.00 2116.39,3111.80 2115.31,3108.30 2114.08,3104.28 2108.08,3106.12 2113.75,3124.54 2111.53,3125.21 2101.17,3128.29 2101.16,3128.13 2099.24,3122.40 2088.25,3125.83 2068.13,3132.02 2081.86,3176.30 2106.24,3168.79 2113.10,3166.72 2113.08,3164.49 2111.74,3160.04 2108.11,3153.89 2107.07,3154.59 2105.12,3155.37 2103.03,3155.74 2100.98,3155.71 2099.15,3155.34 2097.04,3154.46 2095.33,3153.28 2093.86,3151.77 2092.68,3149.93 2092.19,3148.77 2091.79,3147.35 2091.57,3145.20 2091.71,3143.44 2092.27,3141.45 2093.00,3139.91 2094.06,3138.41 2095.46,3137.04 2096.93,3136.03 2098.70,3135.23 2100.38,3134.80 2101.28,3134.69 2101.21,3131.23 2111.15,3128.19"/>
    <poly id="116868008" type="building" color="255,230,230" fill="1" layer="-1.00" shape="2084.40,3113.43 2085.76,3113.01 2083.45,3105.56 2069.63,3109.81 2061.98,3112.17 2064.29,3119.61 2084.40,3113.43"/>
    <poly id="116868009" type="amenity" color="237,199,199" fill="1" layer="-1.00" shape="2107.33,3202.09 2115.76,3199.48 2111.39,3185.36 2127.26,3180.51 2131.54,3194.39 2133.75,3193.72 2137.54,3206.03 2144.74,3203.84 2140.95,3191.51 2131.29,3160.17 2121.88,3163.05 2126.31,3177.44 2110.43,3182.29 2106.24,3168.79 2081.86,3176.30 2091.37,3206.96 2107.33,3202.09"/>
    <poly id="116868009#1" type="building" color="255,230,230" fill="1" layer="-1.00" shape="2107.33,3202.09 2115.76,3199.48 2111.39,3185.36 2127.26,3180.51 2131.54,3194.39 2133.75,3193.72 2137.54,3206.03 2144.74,3203.84 2140.95,3191.51 2131.29,3160.17 2121.88,3163.05 2126.31,3177.44 2110.43,3182.29 2106.24,3168.79 2081.86,3176.30 2091.37,3206.96 2107.33,3202.09"/>
    <poly id="116868011" type="building" color="255,230,230" fill="1" layer="-1.00" shape="2088.25,3125.83 2084.40,3113.43 2064.29,3119.61 2068.13,3132.02 2088.25,3125.83"/>
    <poly id="116868013" type="building" color="255,230,230" fill="1" layer="-1.00" shape="2145.06,3216.47 2145.80,3218.80 2149.06,3217.78 2148.32,3215.44 2145.24,3205.74 2113.63,3215.69 2116.71,3225.39 2145.06,3216.47"/>
    <poly id="116868015" type="amenity" color="237,199,199" fill="1" layer="-1.00" shape="2091.37,3206.96 2099.71,3233.26 2107.23,3230.65 2115.47,3228.08 2107.33,3202.09 2091.37,3206.96"/>
    <poly id="116868015#1" type="building" color="255,230,230" fill="1" layer="-1.00" shape="2091.37,3206.96 2099.71,3233.26 2107.23,3230.65 2115.47,3228.08 2107.33,3202.09 2091.37,3206.96"/>
    <poly id="116868019" type="building" color="255,230,230" fill="1" layer="-1.00" shape="2107.23,3230.65 2115.47,3228.08 2122.05,3225.97 2136.85,3221.40 2155.24,3282.25 2140.22,3286.82 2138.26,3280.00 2132.37,3281.91 2136.15,3295.21 2122.84,3299.02 2104.60,3238.99 2109.17,3237.57 2107.23,3230.65"/>
    <poly id="116868020" type="building" color="255,230,230" fill="1" layer="-1.00" shape="2069.63,3109.81 2062.26,3086.02 2054.60,3088.36 2061.98,3112.17 2069.63,3109.81"/>
    <poly id="116868021" type="building" color="255,230,230" fill="1" layer="-1.00" shape="2089.48,3111.87 2090.80,3116.11 2096.56,3114.33 2095.25,3110.09 2098.55,3109.06 2103.18,3107.64 2107.03,3120.05 2099.24,3122.40 2088.25,3125.83 2084.40,3113.43 2085.76,3113.01 2089.48,3111.87"/>
    <poly id="116869108" type="building" color="255,230,230" fill="1" layer="-1.00" shape="1820.58,3241.33 1810.40,3232.54 1800.75,3243.62 1810.94,3252.40 1812.17,3250.98 1819.77,3257.55 1818.66,3258.82 1823.12,3262.60 1826.13,3259.52 1833.13,3252.15 1828.18,3247.88 1826.84,3249.42 1819.24,3242.87 1820.58,3241.33"/>
    <poly id="116869110" type="building" color="255,230,230" fill="1" layer="-1.00" shape="1741.15,3364.96 1743.98,3368.20 1752.34,3377.77 1762.42,3368.01 1751.82,3355.78 1741.15,3364.96"/>
    <poly id="116869111" type="building" color="255,230,230" fill="1" layer="-1.00" shape="1874.94,3268.90 1907.54,3250.18 1901.83,3240.30 1899.96,3241.37 1869.23,3259.04 1874.94,3268.90"/>
    <poly id="116869113" type="building" color="255,230,230" fill="1" layer="-1.00" shape="1748.18,3351.58 1751.82,3355.78 1762.42,3368.01 1782.30,3348.76 1770.97,3332.62 1748.18,3351.58"/>
    <poly id="116869115" type="building" color="255,230,230" fill="1" layer="-1.00" shape="1874.44,3226.58 1870.87,3220.42 1852.86,3230.77 1862.49,3247.41 1893.23,3229.74 1889.78,3223.79 1884.95,3226.55 1883.37,3223.81 1880.98,3225.19 1879.96,3223.42 1874.44,3226.58"/>
    <poly id="116869116" type="building" color="255,230,230" fill="1" layer="-1.00" shape="1872.35,3215.40 1870.87,3220.42 1852.86,3230.77 1835.66,3201.08 1859.28,3210.29 1872.35,3215.40"/>
    <poly id="116869117" type="building" color="255,230,230" fill="1" layer="-1.00" shape="1809.96,3267.82 1808.64,3269.34 1813.42,3273.56 1814.78,3271.98 1816.74,3273.67 1819.38,3270.90 1814.37,3266.57 1816.05,3264.65 1821.14,3269.04 1823.27,3266.80 1825.39,3264.57 1823.12,3262.60 1821.10,3264.92 1810.36,3255.66 1812.23,3253.51 1810.94,3252.40 1800.75,3243.62 1791.62,3254.26 1802.89,3264.24 1804.15,3262.80 1809.96,3267.82"/>
    <poly id="116869118" type="building" color="255,230,230" fill="1" layer="-1.00" shape="1898.71,3309.95 1927.30,3293.52 1921.06,3282.75 1892.47,3299.18 1898.71,3309.95"/>
    <poly id="116869121" type="building" color="255,230,230" fill="1" layer="-1.00" shape="1755.81,3294.42 1766.89,3309.23 1783.94,3296.60 1767.14,3281.72 1755.81,3294.42"/>
    <poly id="116869125" type="building" color="255,230,230" fill="1" layer="-1.00" shape="1902.24,3316.05 1925.34,3302.78 1932.13,3298.88 1928.60,3292.78 1927.30,3293.52 1898.71,3309.95 1902.24,3316.05"/>
    <poly id="116869126" type="building" color="255,230,230" fill="1" layer="-1.00" shape="1810.47,3320.54 1805.21,3315.53 1791.79,3302.76 1772.92,3317.31 1789.91,3339.16 1791.83,3339.97 1810.47,3320.54"/>
    <poly id="116869127" type="building" color="255,230,230" fill="1" layer="-1.00" shape="1751.82,3355.78 1748.18,3351.58 1744.87,3347.76 1734.16,3356.96 1730.39,3352.64 1712.87,3367.82 1726.46,3383.38 1743.98,3368.20 1741.15,3364.96 1751.82,3355.78"/>
    <poly id="116869128" type="building" color="255,230,230" fill="1" layer="-1.00" shape="1967.83,3339.97 1961.72,3317.84 1938.67,3324.04 1944.44,3333.63 1953.90,3348.56 1967.83,3339.97"/>
    <poly id="116869131" type="building" color="255,230,230" fill="1" layer="-1.00" shape="1792.03,3299.50 1790.22,3301.53 1791.79,3302.76 1797.34,3296.82 1794.56,3294.36 1795.78,3293.01 1798.56,3295.46 1801.69,3291.94 1803.33,3290.12 1803.57,3289.84 1802.89,3289.23 1801.54,3288.03 1799.65,3290.13 1797.83,3288.53 1799.54,3286.62 1778.99,3268.43 1767.14,3281.72 1783.94,3296.60 1787.87,3299.68 1789.81,3297.53 1792.03,3299.50"/>
    <poly id="116869132" type="building" color="255,230,230" fill="1" layer="-1.00" shape="1720.35,3341.16 1712.97,3332.71 1701.06,3343.04 1708.44,3351.48 1720.35,3341.16"/>
    <poly id="116869133" type="building" color="255,230,230" fill="1" layer="-1.00" shape="1847.90,3185.97 1835.66,3201.08 1845.07,3204.74 1855.66,3191.47 1847.90,3185.97"/>
    <poly id="116869134" type="building" color="255,230,230" fill="1" layer="-1.00" shape="1735.04,3392.78 1752.34,3377.77 1743.98,3368.20 1726.46,3383.38 1735.04,3392.78"/>
    <poly id="116869135" type="building" color="255,230,230" fill="1" layer="-1.00" shape="1783.94,3296.60 1766.89,3309.23 1772.92,3317.31 1791.79,3302.76 1790.22,3301.53 1787.87,3299.68 1783.94,3296.60"/>
    <poly id="116869139" type="building" color="255,230,230" fill="1" layer="-1.00" shape="1938.67,3324.04 1961.72,3317.84 1956.39,3298.19 1934.07,3304.19 1931.26,3304.95 1935.27,3319.75 1937.36,3319.19 1938.67,3324.04"/>
    <poly id="116869140" type="building" color="255,230,230" fill="1" layer="-1.00" shape="1689.74,3357.20 1694.95,3363.18 1708.44,3351.48 1701.06,3343.04 1690.15,3352.49 1689.74,3357.20"/>
    <poly id="116869142" type="building" color="255,230,230" fill="1" layer="-1.00" shape="1834.84,3295.13 1816.17,3277.35 1811.11,3282.63 1809.73,3284.06 1805.94,3288.02 1803.63,3290.42 1822.30,3308.19 1834.84,3295.13"/>
    <poly id="116869143" type="building" color="255,230,230" fill="1" layer="-1.00" shape="1956.39,3298.19 1952.13,3282.77 1929.86,3288.84 1934.07,3304.19 1956.39,3298.19"/>
    <poly id="116869145" type="building" color="255,230,230" fill="1" layer="-1.00" shape="1803.33,3290.12 1801.69,3291.94 1798.56,3295.46 1797.34,3296.82 1791.79,3302.76 1805.21,3315.53 1810.47,3320.54 1822.30,3308.19 1803.63,3290.42 1803.33,3290.12"/>
    <poly id="116869149" type="building" color="255,230,230" fill="1" layer="-1.00" shape="1816.17,3277.35 1834.84,3295.13 1847.00,3282.28 1836.77,3272.62 1826.73,3263.16 1825.39,3264.57 1823.27,3266.80 1821.14,3269.04 1819.38,3270.90 1816.74,3273.67 1814.53,3275.95 1816.17,3277.35"/>
    <poly id="116869151" type="building" color="255,230,230" fill="1" layer="-1.00" shape="1886.05,3288.09 1916.46,3270.62 1918.79,3269.28 1913.15,3259.53 1880.41,3278.34 1886.05,3288.09"/>
    <poly id="116869152" type="building" color="255,230,230" fill="1" layer="-1.00" shape="1906.58,3244.51 1921.34,3273.97 1947.73,3266.78 1938.17,3231.92 1906.58,3244.51"/>
    <poly id="116869155" type="building" color="255,230,230" fill="1" layer="-1.00" shape="1869.23,3259.04 1899.96,3241.37 1893.23,3229.74 1862.49,3247.41 1869.23,3259.04"/>
    <poly id="116869160" type="building" color="255,230,230" fill="1" layer="-1.00" shape="1929.86,3288.84 1952.13,3282.77 1947.73,3266.78 1921.34,3273.97 1929.86,3288.84"/>
    <poly id="116869161" type="building" color="255,230,230" fill="1" layer="-1.00" shape="1892.47,3299.18 1921.06,3282.75 1922.88,3281.70 1916.46,3270.62 1886.05,3288.09 1892.47,3299.18"/>
    <poly id="116869163" type="building" color="255,230,230" fill="1" layer="-1.00" shape="1880.41,3278.34 1913.15,3259.53 1907.49,3250.21 1874.94,3268.90 1880.41,3278.34"/>
    <poly id="116869164" type="building" color="255,230,230" fill="1" layer="-1.00" shape="1805.94,3288.02 1809.73,3284.06 1811.11,3282.63 1816.17,3277.35 1814.53,3275.95 1813.43,3277.18 1811.62,3275.59 1813.42,3273.56 1808.64,3269.34 1802.89,3264.24 1791.62,3254.26 1778.99,3268.43 1799.54,3286.62 1800.91,3287.83 1803.05,3285.42 1804.86,3287.02 1802.89,3289.23 1803.57,3289.84 1803.63,3290.42 1805.94,3288.02"/>
    <poly id="116869165" type="building" color="255,230,230" fill="1" layer="-1.00" shape="1744.87,3347.76 1733.54,3334.67 1723.78,3323.41 1712.97,3332.71 1720.35,3341.16 1730.39,3352.64 1734.16,3356.96 1744.87,3347.76"/>
    <poly id="116869168" type="building" color="255,230,230" fill="1" layer="-1.00" shape="1810.40,3232.54 1820.58,3241.33 1825.48,3245.55 1839.27,3231.89 1829.28,3215.63 1828.27,3214.71 1827.00,3214.30 1825.10,3214.61 1810.40,3232.54"/>
    <poly id="116869169" type="building" color="255,230,230" fill="1" layer="-1.00" shape="1733.54,3334.67 1744.87,3347.76 1748.18,3351.58 1770.97,3332.62 1758.49,3314.81 1733.54,3334.67"/>
    <poly id="116869170" type="building" color="255,230,230" fill="1" layer="-1.00" shape="1694.95,3363.18 1704.98,3374.66 1712.87,3367.82 1730.39,3352.64 1720.35,3341.16 1708.44,3351.48 1694.95,3363.18"/>
    <poly id="116869172" type="building" color="255,230,230" fill="1" layer="-1.00" shape="1749.68,3302.25 1758.49,3314.81 1733.54,3334.67 1723.78,3323.41 1749.68,3302.25"/>
    <poly id="116869173" type="building" color="255,230,230" fill="1" layer="-1.00" shape="1920.47,3347.54 1928.62,3342.86 1933.09,3340.22 1944.44,3333.63 1938.67,3324.04 1938.56,3324.06 1935.27,3319.75 1934.47,3318.55 1911.37,3331.81 1920.47,3347.54"/>
    <poly id="116869174" type="building" color="255,230,230" fill="1" layer="-1.00" shape="1836.91,3269.70 1852.28,3253.54 1844.43,3240.27 1833.13,3252.15 1826.13,3259.52 1827.68,3261.00 1826.18,3262.56 1826.73,3263.16 1833.71,3269.65 1835.20,3268.08 1836.91,3269.70"/>
    <poly id="116869177" type="building" color="255,230,230" fill="1" layer="-1.00" shape="1836.91,3269.70 1838.31,3271.01 1836.77,3272.62 1847.00,3282.28 1860.52,3268.06 1852.28,3253.54 1836.91,3269.70"/>
    <poly id="116869178" type="building" color="255,230,230" fill="1" layer="-1.00" shape="1930.01,3364.01 1942.26,3356.09 1933.09,3340.22 1928.62,3342.86 1932.34,3349.29 1924.20,3353.97 1930.01,3364.01"/>
    <poly id="116872509" type="building" color="255,230,230" fill="1" layer="-1.00" shape="1946.40,3491.75 1947.70,3511.26 1951.06,3511.03 1963.85,3510.19 1965.39,3510.09 1963.72,3485.16 1962.80,3471.36 1962.43,3465.40 1956.80,3462.68 1936.11,3476.87 1944.26,3488.66 1946.40,3491.75"/>
    <poly id="116872511" type="building" color="255,230,230" fill="1" layer="-1.00" shape="1884.11,3537.51 1882.62,3538.71 1881.63,3537.49 1880.83,3538.13 1882.67,3540.40 1875.53,3541.17 1868.77,3541.89 1864.08,3542.39 1857.80,3543.06 1857.91,3541.04 1857.55,3537.30 1857.23,3534.35 1856.53,3531.48 1872.40,3520.59 1884.11,3537.51"/>
    <poly id="116872512" type="building" color="255,230,230" fill="1" layer="-1.00" shape="2098.50,3390.92 2102.11,3421.42 2109.32,3420.58 2122.10,3419.07 2119.70,3398.83 2118.47,3388.57 2098.50,3390.92"/>
    <poly id="116872513" type="building" color="255,230,230" fill="1" layer="-1.00" shape="2141.25,3374.19 2118.47,3388.57 2098.50,3390.92 2095.89,3372.23 2097.39,3368.46 2125.19,3350.08 2132.21,3345.44 2148.27,3369.55 2141.25,3374.19"/>
    <poly id="116872514" type="building" color="255,230,230" fill="1" layer="-1.00" shape="1931.24,3444.03 1924.23,3433.43 1918.31,3424.48 1909.55,3430.24 1922.25,3449.90 1931.24,3444.03"/>
    <poly id="116872516" type="building" color="255,230,230" fill="1" layer="-1.00" shape="2002.72,3429.64 1988.48,3439.05 1993.89,3447.18 2007.50,3467.60 2021.73,3458.18 2002.72,3429.64"/>
    <poly id="116872517" type="building" color="255,230,230" fill="1" layer="-1.00" shape="1933.96,3495.74 1936.17,3498.94 1939.87,3496.40 1937.65,3493.19 1944.26,3488.66 1936.11,3476.87 1919.22,3488.47 1926.13,3498.46 1927.37,3500.25 1933.96,3495.74"/>
    <poly id="116872519" type="building" color="255,230,230" fill="1" layer="-1.00" shape="1888.42,3452.46 1886.00,3449.14 1885.34,3449.59 1873.21,3457.91 1884.72,3474.58 1897.47,3465.94 1888.42,3452.46"/>