<?xml version="1.0" encoding="UTF-8"?>

<!-- generated on Tue May 13 19:04:46 2014 by SUMO netgenerate Version 0.17.1
<?xml version="1.0" encoding="UTF-8"?>

<configuration xmlns:xsi="http://www.w3.org/2001/XMLSchema-instance" xsi:noNamespaceSchemaLocation="http://sumo.sf.net/xsd/netgenerateConfiguration.xsd">

    <grid_network>
        <grid value="true"/>
        <grid.number value="5"/>
        <grid.length value="900"/>
        <grid.attach-length value="37"/>
    </grid_network>

    <output>
        <output-file value="/home/pierpaolo/Scrivania/scriptMirco/scriptMirco/facilitatore/v0.4/v0.4/net/Mana/Mana.net.xml"/>
        <plain-output-prefix value="/home/pierpaolo/Scrivania/scriptMirco/scriptMirco/facilitatore/v0.4/v0.4/net/Mana/Mana"/>
    </output>

    <processing>
        <no-turnarounds value="true"/>
    </processing>

    <building_defaults>
        <default.lanenumber value="2"/>
    </building_defaults>

    <report>
        <verbose value="true"/>
    </report>

</configuration>
-->

<net version="0.13" xmlns:xsi="http://www.w3.org/2001/XMLSchema-instance" xsi:noNamespaceSchemaLocation="http://sumo.sf.net/xsd/net_file.xsd">

    <location netOffset="0.00,0.00" convBoundary="0.00,0.00,3674.00,3674.00" origBoundary="0.00,0.00,3674.00,3674.00" projParameter="!"/>

    <edge id=":0/0_0" function="internal">
        <lane id=":0/0_0_0" index="0" speed="13.90" length="5.00" shape="32.05,45.05 31.86,43.69 31.27,42.72 30.31,42.14 28.95,41.95"/>
    </edge>
    <edge id=":0/0_1" function="internal">
        <lane id=":0/0_1_0" index="0" speed="13.90" length="16.10" shape="32.05,45.05 32.05,40.27 32.05,37.00 32.05,33.73 32.05,28.95"/>
    </edge>
    <edge id=":0/0_2" function="internal">
        <lane id=":0/0_2_0" index="0" speed="13.90" length="16.10" shape="35.35,45.05 35.35,40.27 35.35,37.00 35.35,33.73 35.35,28.95"/>
    </edge>
    <edge id=":0/0_3" function="internal">
        <lane id=":0/0_3_0" index="0" speed="13.90" length="8.84" shape="35.35,45.05 35.96,40.81 37.78,37.77 38.65,37.25"/>
    </edge>
    <edge id=":0/0_14" function="internal">
        <lane id=":0/0_14_0" index="0" speed="13.90" length="6.80" shape="38.65,37.25 40.81,35.96 45.05,35.35"/>
    </edge>
    <edge id=":0/0_4" function="internal">
        <lane id=":0/0_4_0" index="0" speed="13.90" length="5.00" shape="45.05,41.95 43.69,42.14 42.72,42.73 42.14,43.69 41.95,45.05"/>
    </edge>
    <edge id=":0/0_5" function="internal">
        <lane id=":0/0_5_0" index="0" speed="13.90" length="16.10" shape="45.05,38.65 40.27,38.65 37.00,38.65 33.73,38.65 28.95,38.65"/>
    </edge>
    <edge id=":0/0_6" function="internal">
        <lane id=":0/0_6_0" index="0" speed="13.90" length="15.64" shape="45.05,38.65 40.81,38.04 37.78,36.22 35.96,33.19 35.35,28.95"/>
    </edge>
    <edge id=":0/0_7" function="internal">
        <lane id=":0/0_7_0" index="0" speed="13.90" length="5.00" shape="41.95,28.95 42.14,30.31 42.73,31.27 43.69,31.86 45.05,32.05"/>
    </edge>
    <edge id=":0/0_8" function="internal">
        <lane id=":0/0_8_0" index="0" speed="13.90" length="16.10" shape="41.95,28.95 41.95,33.73 41.95,37.00 41.95,40.27 41.95,45.05"/>
    </edge>
    <edge id=":0/0_9" function="internal">
        <lane id=":0/0_9_0" index="0" speed="13.90" length="16.10" shape="38.65,28.95 38.65,33.73 38.65,37.00 38.65,40.27 38.65,45.05"/>
    </edge>
    <edge id=":0/0_10" function="internal">
        <lane id=":0/0_10_0" index="0" speed="13.90" length="8.84" shape="38.65,28.95 38.04,33.19 36.22,36.22 35.35,36.75"/>
    </edge>
    <edge id=":0/0_15" function="internal">
        <lane id=":0/0_15_0" index="0" speed="13.90" length="6.80" shape="35.35,36.75 33.19,38.04 28.95,38.65"/>
    </edge>
    <edge id=":0/0_11" function="internal">
        <lane id=":0/0_11_0" index="0" speed="13.90" length="5.00" shape="28.95,32.05 30.31,31.86 31.27,31.27 31.86,30.31 32.05,28.95"/>
    </edge>
    <edge id=":0/0_12" function="internal">
        <lane id=":0/0_12_0" index="0" speed="13.90" length="16.10" shape="28.95,35.35 33.73,35.35 37.00,35.35 40.27,35.35 45.05,35.35"/>
    </edge>
    <edge id=":0/0_13" function="internal">
        <lane id=":0/0_13_0" index="0" speed="13.90" length="15.64" shape="28.95,35.35 33.19,35.96 36.22,37.78 38.04,40.81 38.65,45.05"/>
    </edge>
    <edge id=":0/1_0" function="internal">
        <lane id=":0/1_0_0" index="0" speed="13.90" length="5.00" shape="32.05,945.05 31.86,943.69 31.27,942.72 30.31,942.14 28.95,941.95"/>
    </edge>
    <edge id=":0/1_1" function="internal">
        <lane id=":0/1_1_0" index="0" speed="13.90" length="16.10" shape="32.05,945.05 32.05,940.27 32.05,937.00 32.05,933.73 32.05,928.95"/>
    </edge>
    <edge id=":0/1_2" function="internal">
        <lane id=":0/1_2_0" index="0" speed="13.90" length="16.10" shape="35.35,945.05 35.35,940.27 35.35,937.00 35.35,933.73 35.35,928.95"/>
    </edge>
    <edge id=":0/1_3" function="internal">
        <lane id=":0/1_3_0" index="0" speed="13.90" length="8.84" shape="35.35,945.05 35.96,940.81 37.78,937.77 38.65,937.25"/>
    </edge>
    <edge id=":0/1_14" function="internal">
        <lane id=":0/1_14_0" index="0" speed="13.90" length="6.80" shape="38.65,937.25 40.81,935.96 45.05,935.35"/>
    </edge>
    <edge id=":0/1_4" function="internal">
        <lane id=":0/1_4_0" index="0" speed="13.90" length="5.00" shape="45.05,941.95 43.69,942.14 42.73,942.73 42.14,943.69 41.95,945.05"/>
    </edge>
    <edge id=":0/1_5" function="internal">
        <lane id=":0/1_5_0" index="0" speed="13.90" length="16.10" shape="45.05,938.65 40.27,938.65 37.00,938.65 33.73,938.65 28.95,938.65"/>
    </edge>
    <edge id=":0/1_6" function="internal">
        <lane id=":0/1_6_0" index="0" speed="13.90" length="15.64" shape="45.05,938.65 40.81,938.04 37.78,936.22 35.96,933.19 35.35,928.95"/>
    </edge>
    <edge id=":0/1_7" function="internal">
        <lane id=":0/1_7_0" index="0" speed="13.90" length="5.00" shape="41.95,928.95 42.14,930.31 42.73,931.28 43.69,931.86 45.05,932.05"/>
    </edge>
    <edge id=":0/1_8" function="internal">
        <lane id=":0/1_8_0" index="0" speed="13.90" length="16.10" shape="41.95,928.95 41.95,933.73 41.95,937.00 41.95,940.27 41.95,945.05"/>
    </edge>
    <edge id=":0/1_9" function="internal">
        <lane id=":0/1_9_0" index="0" speed="13.90" length="16.10" shape="38.65,928.95 38.65,933.73 38.65,937.00 38.65,940.27 38.65,945.05"/>
    </edge>
    <edge id=":0/1_10" function="internal">
        <lane id=":0/1_10_0" index="0" speed="13.90" length="8.84" shape="38.65,928.95 38.04,933.19 36.22,936.23 35.35,936.75"/>
    </edge>
    <edge id=":0/1_15" function="internal">
        <lane id=":0/1_15_0" index="0" speed="13.90" length="6.80" shape="35.35,936.75 33.19,938.04 28.95,938.65"/>
    </edge>
    <edge id=":0/1_11" function="internal">
        <lane id=":0/1_11_0" index="0" speed="13.90" length="5.00" shape="28.95,932.05 30.31,931.86 31.27,931.27 31.86,930.31 32.05,928.95"/>
    </edge>
    <edge id=":0/1_12" function="internal">
        <lane id=":0/1_12_0" index="0" speed="13.90" length="16.10" shape="28.95,935.35 33.73,935.35 37.00,935.35 40.27,935.35 45.05,935.35"/>
    </edge>
    <edge id=":0/1_13" function="internal">
        <lane id=":0/1_13_0" index="0" speed="13.90" length="15.64" shape="28.95,935.35 33.19,935.96 36.22,937.78 38.04,940.81 38.65,945.05"/>
    </edge>
    <edge id=":0/2_0" function="internal">
        <lane id=":0/2_0_0" index="0" speed="13.90" length="5.00" shape="32.05,1845.05 31.86,1843.69 31.27,1842.72 30.31,1842.14 28.95,1841.95"/>
    </edge>
    <edge id=":0/2_1" function="internal">
        <lane id=":0/2_1_0" index="0" speed="13.90" length="16.10" shape="32.05,1845.05 32.05,1840.27 32.05,1837.00 32.05,1833.73 32.05,1828.95"/>
    </edge>
    <edge id=":0/2_2" function="internal">
        <lane id=":0/2_2_0" index="0" speed="13.90" length="16.10" shape="35.35,1845.05 35.35,1840.27 35.35,1837.00 35.35,1833.73 35.35,1828.95"/>
    </edge>
    <edge id=":0/2_3" function="internal">
        <lane id=":0/2_3_0" index="0" speed="13.90" length="8.84" shape="35.35,1845.05 35.96,1840.81 37.78,1837.78 38.65,1837.25"/>
    </edge>
    <edge id=":0/2_14" function="internal">
        <lane id=":0/2_14_0" index="0" speed="13.90" length="6.80" shape="38.65,1837.25 40.81,1835.96 45.05,1835.35"/>
    </edge>
    <edge id=":0/2_4" function="internal">
        <lane id=":0/2_4_0" index="0" speed="13.90" length="5.00" shape="45.05,1841.95 43.69,1842.14 42.73,1842.73 42.14,1843.69 41.95,1845.05"/>
    </edge>
    <edge id=":0/2_5" function="internal">
        <lane id=":0/2_5_0" index="0" speed="13.90" length="16.10" shape="45.05,1838.65 40.27,1838.65 37.00,1838.65 33.73,1838.65 28.95,1838.65"/>
    </edge>
    <edge id=":0/2_6" function="internal">
        <lane id=":0/2_6_0" index="0" speed="13.90" length="15.64" shape="45.05,1838.65 40.81,1838.04 37.77,1836.23 35.96,1833.19 35.35,1828.95"/>
    </edge>
    <edge id=":0/2_7" function="internal">
        <lane id=":0/2_7_0" index="0" speed="13.90" length="5.00" shape="41.95,1828.95 42.14,1830.31 42.73,1831.28 43.69,1831.86 45.05,1832.05"/>
    </edge>
    <edge id=":0/2_8" function="internal">
        <lane id=":0/2_8_0" index="0" speed="13.90" length="16.10" shape="41.95,1828.95 41.95,1833.73 41.95,1837.00 41.95,1840.27 41.95,1845.05"/>
    </edge>
    <edge id=":0/2_9" function="internal">
        <lane id=":0/2_9_0" index="0" speed="13.90" length="16.10" shape="38.65,1828.95 38.65,1833.73 38.65,1837.00 38.65,1840.27 38.65,1845.05"/>
    </edge>
    <edge id=":0/2_10" function="internal">
        <lane id=":0/2_10_0" index="0" speed="13.90" length="8.84" shape="38.65,1828.95 38.04,1833.19 36.22,1836.22 35.35,1836.75"/>
    </edge>
    <edge id=":0/2_15" function="internal">
        <lane id=":0/2_15_0" index="0" speed="13.90" length="6.80" shape="35.35,1836.75 33.19,1838.04 28.95,1838.65"/>
    </edge>
    <edge id=":0/2_11" function="internal">
        <lane id=":0/2_11_0" index="0" speed="13.90" length="5.00" shape="28.95,1832.05 30.31,1831.86 31.27,1831.27 31.86,1830.31 32.05,1828.95"/>
    </edge>
    <edge id=":0/2_12" function="internal">
        <lane id=":0/2_12_0" index="0" speed="13.90" length="16.10" shape="28.95,1835.35 33.73,1835.35 37.00,1835.35 40.27,1835.35 45.05,1835.35"/>
    </edge>
    <edge id=":0/2_13" function="internal">
        <lane id=":0/2_13_0" index="0" speed="13.90" length="15.64" shape="28.95,1835.35 33.19,1835.96 36.22,1837.77 38.04,1840.81 38.65,1845.05"/>
    </edge>
    <edge id=":0/3_0" function="internal">
        <lane id=":0/3_0_0" index="0" speed="13.90" length="5.00" shape="32.05,2745.05 31.86,2743.69 31.27,2742.72 30.31,2742.14 28.95,2741.95"/>
    </edge>
    <edge id=":0/3_1" function="internal">
        <lane id=":0/3_1_0" index="0" speed="13.90" length="16.10" shape="32.05,2745.05 32.05,2740.27 32.05,2737.00 32.05,2733.73 32.05,2728.95"/>
    </edge>
    <edge id=":0/3_2" function="internal">
        <lane id=":0/3_2_0" index="0" speed="13.90" length="16.10" shape="35.35,2745.05 35.35,2740.27 35.35,2737.00 35.35,2733.73 35.35,2728.95"/>
    </edge>
    <edge id=":0/3_3" function="internal">
        <lane id=":0/3_3_0" index="0" speed="13.90" length="8.84" shape="35.35,2745.05 35.96,2740.81 37.78,2737.78 38.65,2737.25"/>
    </edge>
    <edge id=":0/3_14" function="internal">
        <lane id=":0/3_14_0" index="0" speed="13.90" length="6.80" shape="38.65,2737.25 40.81,2735.96 45.05,2735.35"/>
    </edge>
    <edge id=":0/3_4" function="internal">
        <lane id=":0/3_4_0" index="0" speed="13.90" length="5.00" shape="45.05,2741.95 43.69,2742.14 42.73,2742.72 42.14,2743.69 41.95,2745.05"/>
    </edge>
    <edge id=":0/3_5" function="internal">
        <lane id=":0/3_5_0" index="0" speed="13.90" length="16.10" shape="45.05,2738.65 40.27,2738.65 37.00,2738.65 33.73,2738.65 28.95,2738.65"/>
    </edge>
    <edge id=":0/3_6" function="internal">
        <lane id=":0/3_6_0" index="0" speed="13.90" length="15.64" shape="45.05,2738.65 40.81,2738.04 37.78,2736.23 35.96,2733.19 35.35,2728.95"/>
    </edge>
    <edge id=":0/3_7" function="internal">
        <lane id=":0/3_7_0" index="0" speed="13.90" length="5.00" shape="41.95,2728.95 42.14,2730.31 42.73,2731.28 43.69,2731.86 45.05,2732.05"/>
    </edge>
    <edge id=":0/3_8" function="internal">
        <lane id=":0/3_8_0" index="0" speed="13.90" length="16.10" shape="41.95,2728.95 41.95,2733.73 41.95,2737.00 41.95,2740.27 41.95,2745.05"/>
    </edge>
    <edge id=":0/3_9" function="internal">
        <lane id=":0/3_9_0" index="0" speed="13.90" length="16.10" shape="38.65,2728.95 38.65,2733.73 38.65,2737.00 38.65,2740.27 38.65,2745.05"/>
    </edge>
    <edge id=":0/3_10" function="internal">
        <lane id=":0/3_10_0" index="0" speed="13.90" length="8.84" shape="38.65,2728.95 38.04,2733.19 36.22,2736.22 35.35,2736.75"/>
    </edge>
    <edge id=":0/3_15" function="internal">
        <lane id=":0/3_15_0" index="0" speed="13.90" length="6.80" shape="35.35,2736.75 33.19,2738.04 28.95,2738.65"/>
    </edge>
    <edge id=":0/3_11" function="internal">
        <lane id=":0/3_11_0" index="0" speed="13.90" length="5.00" shape="28.95,2732.05 30.31,2731.86 31.27,2731.28 31.86,2730.31 32.05,2728.95"/>
    </edge>
    <edge id=":0/3_12" function="internal">
        <lane id=":0/3_12_0" index="0" speed="13.90" length="16.10" shape="28.95,2735.35 33.73,2735.35 37.00,2735.35 40.27,2735.35 45.05,2735.35"/>
    </edge>
    <edge id=":0/3_13" function="internal">
        <lane id=":0/3_13_0" index="0" speed="13.90" length="15.64" shape="28.95,2735.35 33.19,2735.96 36.22,2737.77 38.04,2740.81 38.65,2745.05"/>
    </edge>
    <edge id=":0/4_0" function="internal">
        <lane id=":0/4_0_0" index="0" speed="13.90" length="5.00" shape="32.05,3645.05 31.86,3643.69 31.27,3642.72 30.31,3642.14 28.95,3641.95"/>
    </edge>
    <edge id=":0/4_1" function="internal">
        <lane id=":0/4_1_0" index="0" speed="13.90" length="16.10" shape="32.05,3645.05 32.05,3640.27 32.05,3637.00 32.05,3633.73 32.05,3628.95"/>
    </edge>
    <edge id=":0/4_2" function="internal">
        <lane id=":0/4_2_0" index="0" speed="13.90" length="16.10" shape="35.35,3645.05 35.35,3640.27 35.35,3637.00 35.35,3633.73 35.35,3628.95"/>
    </edge>
    <edge id=":0/4_3" function="internal">
        <lane id=":0/4_3_0" index="0" speed="13.90" length="8.84" shape="35.35,3645.05 35.96,3640.81 37.78,3637.78 38.65,3637.25"/>
    </edge>
    <edge id=":0/4_14" function="internal">
        <lane id=":0/4_14_0" index="0" speed="13.90" length="6.80" shape="38.65,3637.25 40.81,3635.96 45.05,3635.35"/>
    </edge>
    <edge id=":0/4_4" function="internal">
        <lane id=":0/4_4_0" index="0" speed="13.90" length="5.00" shape="45.05,3641.95 43.69,3642.14 42.72,3642.72 42.14,3643.69 41.95,3645.05"/>
    </edge>
    <edge id=":0/4_5" function="internal">
        <lane id=":0/4_5_0" index="0" speed="13.90" length="16.10" shape="45.05,3638.65 40.27,3638.65 37.00,3638.65 33.73,3638.65 28.95,3638.65"/>
    </edge>
    <edge id=":0/4_6" function="internal">
        <lane id=":0/4_6_0" index="0" speed="13.90" length="15.64" shape="45.05,3638.65 40.81,3638.04 37.78,3636.23 35.96,3633.19 35.35,3628.95"/>
    </edge>
    <edge id=":0/4_7" function="internal">
        <lane id=":0/4_7_0" index="0" speed="13.90" length="5.00" shape="41.95,3628.95 42.14,3630.31 42.73,3631.28 43.69,3631.86 45.05,3632.05"/>
    </edge>
    <edge id=":0/4_8" function="internal">
        <lane id=":0/4_8_0" index="0" speed="13.90" length="16.10" shape="41.95,3628.95 41.95,3633.73 41.95,3637.00 41.95,3640.27 41.95,3645.05"/>
    </edge>
    <edge id=":0/4_9" function="internal">
        <lane id=":0/4_9_0" index="0" speed="13.90" length="16.10" shape="38.65,3628.95 38.65,3633.73 38.65,3637.00 38.65,3640.27 38.65,3645.05"/>
    </edge>
    <edge id=":0/4_10" function="internal">
        <lane id=":0/4_10_0" index="0" speed="13.90" length="8.84" shape="38.65,3628.95 38.04,3633.19 36.22,3636.22 35.35,3636.75"/>
    </edge>
    <edge id=":0/4_15" function="internal">
        <lane id=":0/4_15_0" index="0" speed="13.90" length="6.80" shape="35.35,3636.75 33.19,3638.04 28.95,3638.65"/>
    </edge>
    <edge id=":0/4_11" function="internal">
        <lane id=":0/4_11_0" index="0" speed="13.90" length="5.00" shape="28.95,3632.05 30.31,3631.86 31.27,3631.28 31.86,3630.31 32.05,3628.95"/>
    </edge>
    <edge id=":0/4_12" function="internal">
        <lane id=":0/4_12_0" index="0" speed="13.90" length="16.10" shape="28.95,3635.35 33.73,3635.35 37.00,3635.35 40.27,3635.35 45.05,3635.35"/>
    </edge>
    <edge id=":0/4_13" function="internal">
        <lane id=":0/4_13_0" index="0" speed="13.90" length="15.64" shape="28.95,3635.35 33.19,3635.96 36.22,3637.77 38.04,3640.81 38.65,3645.05"/>
    </edge>
    <edge id=":1/0_0" function="internal">
        <lane id=":1/0_0_0" index="0" speed="13.90" length="5.00" shape="932.05,45.05 931.86,43.69 931.27,42.72 930.31,42.14 928.95,41.95"/>
    </edge>
    <edge id=":1/0_1" function="internal">
        <lane id=":1/0_1_0" index="0" speed="13.90" length="16.10" shape="932.05,45.05 932.05,40.27 932.05,37.00 932.05,33.73 932.05,28.95"/>
    </edge>
    <edge id=":1/0_2" function="internal">
        <lane id=":1/0_2_0" index="0" speed="13.90" length="16.10" shape="935.35,45.05 935.35,40.27 935.35,37.00 935.35,33.73 935.35,28.95"/>
    </edge>
    <edge id=":1/0_3" function="internal">
        <lane id=":1/0_3_0" index="0" speed="13.90" length="8.84" shape="935.35,45.05 935.96,40.81 937.78,37.77 938.65,37.25"/>
    </edge>
    <edge id=":1/0_14" function="internal">
        <lane id=":1/0_14_0" index="0" speed="13.90" length="6.80" shape="938.65,37.25 940.81,35.96 945.05,35.35"/>
    </edge>
    <edge id=":1/0_4" function="internal">
        <lane id=":1/0_4_0" index="0" speed="13.90" length="5.00" shape="945.05,41.95 943.69,42.14 942.72,42.73 942.14,43.69 941.95,45.05"/>
    </edge>
    <edge id=":1/0_5" function="internal">
        <lane id=":1/0_5_0" index="0" speed="13.90" length="16.10" shape="945.05,38.65 940.27,38.65 937.00,38.65 933.73,38.65 928.95,38.65"/>
    </edge>
    <edge id=":1/0_6" function="internal">
        <lane id=":1/0_6_0" index="0" speed="13.90" length="15.64" shape="945.05,38.65 940.81,38.04 937.77,36.22 935.96,33.19 935.35,28.95"/>
    </edge>
    <edge id=":1/0_7" function="internal">
        <lane id=":1/0_7_0" index="0" speed="13.90" length="5.00" shape="941.95,28.95 942.14,30.31 942.73,31.27 943.69,31.86 945.05,32.05"/>
    </edge>
    <edge id=":1/0_8" function="internal">
        <lane id=":1/0_8_0" index="0" speed="13.90" length="16.10" shape="941.95,28.95 941.95,33.73 941.95,37.00 941.95,40.27 941.95,45.05"/>
    </edge>
    <edge id=":1/0_9" function="internal">
        <lane id=":1/0_9_0" index="0" speed="13.90" length="16.10" shape="938.65,28.95 938.65,33.73 938.65,37.00 938.65,40.27 938.65,45.05"/>
    </edge>
    <edge id=":1/0_10" function="internal">
        <lane id=":1/0_10_0" index="0" speed="13.90" length="8.84" shape="938.65,28.95 938.04,33.19 936.22,36.22 935.35,36.75"/>
    </edge>
    <edge id=":1/0_15" function="internal">
        <lane id=":1/0_15_0" index="0" speed="13.90" length="6.80" shape="935.35,36.75 933.19,38.04 928.95,38.65"/>
    </edge>
    <edge id=":1/0_11" function="internal">
        <lane id=":1/0_11_0" index="0" speed="13.90" length="5.00" shape="928.95,32.05 930.31,31.86 931.28,31.27 931.86,30.31 932.05,28.95"/>
    </edge>
    <edge id=":1/0_12" function="internal">
        <lane id=":1/0_12_0" index="0" speed="13.90" length="16.10" shape="928.95,35.35 933.73,35.35 937.00,35.35 940.27,35.35 945.05,35.35"/>
    </edge>
    <edge id=":1/0_13" function="internal">
        <lane id=":1/0_13_0" index="0" speed="13.90" length="15.64" shape="928.95,35.35 933.19,35.96 936.23,37.78 938.04,40.81 938.65,45.05"/>
    </edge>
    <edge id=":1/1_0" function="internal">
        <lane id=":1/1_0_0" index="0" speed="13.90" length="5.00" shape="932.05,945.05 931.86,943.69 931.27,942.72 930.31,942.14 928.95,941.95"/>
    </edge>
    <edge id=":1/1_1" function="internal">
        <lane id=":1/1_1_0" index="0" speed="13.90" length="16.10" shape="932.05,945.05 932.05,940.27 932.05,937.00 932.05,933.73 932.05,928.95"/>
    </edge>
    <edge id=":1/1_2" function="internal">
        <lane id=":1/1_2_0" index="0" speed="13.90" length="16.10" shape="935.35,945.05 935.35,940.27 935.35,937.00 935.35,933.73 935.35,928.95"/>
    </edge>
    <edge id=":1/1_3" function="internal">
        <lane id=":1/1_3_0" index="0" speed="13.90" length="8.84" shape="935.35,945.05 935.96,940.81 937.78,937.77 938.65,937.25"/>
    </edge>
    <edge id=":1/1_14" function="internal">
        <lane id=":1/1_14_0" index="0" speed="13.90" length="6.80" shape="938.65,937.25 940.81,935.96 945.05,935.35"/>
    </edge>
    <edge id=":1/1_4" function="internal">
        <lane id=":1/1_4_0" index="0" speed="13.90" length="5.00" shape="945.05,941.95 943.69,942.14 942.73,942.73 942.14,943.69 941.95,945.05"/>
    </edge>
    <edge id=":1/1_5" function="internal">
        <lane id=":1/1_5_0" index="0" speed="13.90" length="16.10" shape="945.05,938.65 940.27,938.65 937.00,938.65 933.73,938.65 928.95,938.65"/>
    </edge>
    <edge id=":1/1_6" function="internal">
        <lane id=":1/1_6_0" index="0" speed="13.90" length="15.64" shape="945.05,938.65 940.81,938.04 937.77,936.22 935.96,933.19 935.35,928.95"/>
    </edge>
    <edge id=":1/1_7" function="internal">
        <lane id=":1/1_7_0" index="0" speed="13.90" length="5.00" shape="941.95,928.95 942.14,930.31 942.73,931.27 943.69,931.86 945.05,932.05"/>
    </edge>
    <edge id=":1/1_8" function="internal">
        <lane id=":1/1_8_0" index="0" speed="13.90" length="16.10" shape="941.95,928.95 941.95,933.73 941.95,937.00 941.95,940.27 941.95,945.05"/>
    </edge>
    <edge id=":1/1_9" function="internal">
        <lane id=":1/1_9_0" index="0" speed="13.90" length="16.10" shape="938.65,928.95 938.65,933.73 938.65,937.00 938.65,940.27 938.65,945.05"/>
    </edge>
    <edge id=":1/1_10" function="internal">
        <lane id=":1/1_10_0" index="0" speed="13.90" length="8.84" shape="938.65,928.95 938.04,933.19 936.22,936.23 935.35,936.75"/>
    </edge>
    <edge id=":1/1_15" function="internal">
        <lane id=":1/1_15_0" index="0" speed="13.90" length="6.80" shape="935.35,936.75 933.19,938.04 928.95,938.65"/>
    </edge>
    <edge id=":1/1_11" function="internal">
        <lane id=":1/1_11_0" index="0" speed="13.90" length="5.00" shape="928.95,932.05 930.31,931.86 931.28,931.27 931.86,930.31 932.05,928.95"/>
    </edge>
    <edge id=":1/1_12" function="internal">
        <lane id=":1/1_12_0" index="0" speed="13.90" length="16.10" shape="928.95,935.35 933.73,935.35 937.00,935.35 940.27,935.35 945.05,935.35"/>
    </edge>
    <edge id=":1/1_13" function="internal">
        <lane id=":1/1_13_0" index="0" speed="13.90" length="15.64" shape="928.95,935.35 933.19,935.96 936.23,937.78 938.04,940.81 938.65,945.05"/>
    </edge>
    <edge id=":1/2_0" function="internal">
        <lane id=":1/2_0_0" index="0" speed="13.90" length="5.00" shape="932.05,1845.05 931.86,1843.69 931.27,1842.72 930.31,1842.14 928.95,1841.95"/>
    </edge>
    <edge id=":1/2_1" function="internal">
        <lane id=":1/2_1_0" index="0" speed="13.90" length="16.10" shape="932.05,1845.05 932.05,1840.27 932.05,1837.00 932.05,1833.73 932.05,1828.95"/>
    </edge>
    <edge id=":1/2_2" function="internal">
        <lane id=":1/2_2_0" index="0" speed="13.90" length="16.10" shape="935.35,1845.05 935.35,1840.27 935.35,1837.00 935.35,1833.73 935.35,1828.95"/>
    </edge>
    <edge id=":1/2_3" function="internal">
        <lane id=":1/2_3_0" index="0" speed="13.90" length="8.84" shape="935.35,1845.05 935.96,1840.81 937.78,1837.78 938.65,1837.25"/>
    </edge>
    <edge id=":1/2_14" function="internal">
        <lane id=":1/2_14_0" index="0" speed="13.90" length="6.80" shape="938.65,1837.25 940.81,1835.96 945.05,1835.35"/>
    </edge>
    <edge id=":1/2_4" function="internal">
        <lane id=":1/2_4_0" index="0" speed="13.90" length="5.00" shape="945.05,1841.95 943.69,1842.14 942.73,1842.73 942.14,1843.69 941.95,1845.05"/>
    </edge>
    <edge id=":1/2_5" function="internal">
        <lane id=":1/2_5_0" index="0" speed="13.90" length="16.10" shape="945.05,1838.65 940.27,1838.65 937.00,1838.65 933.73,1838.65 928.95,1838.65"/>
    </edge>
    <edge id=":1/2_6" function="internal">
        <lane id=":1/2_6_0" index="0" speed="13.90" length="15.64" shape="945.05,1838.65 940.81,1838.04 937.77,1836.23 935.96,1833.19 935.35,1828.95"/>
    </edge>
    <edge id=":1/2_7" function="internal">
        <lane id=":1/2_7_0" index="0" speed="13.90" length="5.00" shape="941.95,1828.95 942.14,1830.31 942.73,1831.28 943.69,1831.86 945.05,1832.05"/>
    </edge>
    <edge id=":1/2_8" function="internal">
        <lane id=":1/2_8_0" index="0" speed="13.90" length="16.10" shape="941.95,1828.95 941.95,1833.73 941.95,1837.00 941.95,1840.27 941.95,1845.05"/>
    </edge>
    <edge id=":1/2_9" function="internal">
        <lane id=":1/2_9_0" index="0" speed="13.90" length="16.10" shape="938.65,1828.95 938.65,1833.73 938.65,1837.00 938.65,1840.27 938.65,1845.05"/>
    </edge>
    <edge id=":1/2_10" function="internal">
        <lane id=":1/2_10_0" index="0" speed="13.90" length="8.84" shape="938.65,1828.95 938.04,1833.19 936.22,1836.22 935.35,1836.75"/>
    </edge>
    <edge id=":1/2_15" function="internal">
        <lane id=":1/2_15_0" index="0" speed="13.90" length="6.80" shape="935.35,1836.75 933.19,1838.04 928.95,1838.65"/>
    </edge>
    <edge id=":1/2_11" function="internal">
        <lane id=":1/2_11_0" index="0" speed="13.90" length="5.00" shape="928.95,1832.05 930.31,1831.86 931.27,1831.27 931.86,1830.31 932.05,1828.95"/>
    </edge>
    <edge id=":1/2_12" function="internal">
        <lane id=":1/2_12_0" index="0" speed="13.90" length="16.10" shape="928.95,1835.35 933.73,1835.35 937.00,1835.35 940.27,1835.35 945.05,1835.35"/>
    </edge>
    <edge id=":1/2_13" function="internal">
        <lane id=":1/2_13_0" index="0" speed="13.90" length="15.64" shape="928.95,1835.35 933.19,1835.96 936.23,1837.77 938.04,1840.81 938.65,1845.05"/>
    </edge>
    <edge id=":1/3_0" function="internal">
        <lane id=":1/3_0_0" index="0" speed="13.90" length="5.00" shape="932.05,2745.05 931.86,2743.69 931.27,2742.72 930.31,2742.14 928.95,2741.95"/>
    </edge>
    <edge id=":1/3_1" function="internal">
        <lane id=":1/3_1_0" index="0" speed="13.90" length="16.10" shape="932.05,2745.05 932.05,2740.27 932.05,2737.00 932.05,2733.73 932.05,2728.95"/>
    </edge>
    <edge id=":1/3_2" function="internal">
        <lane id=":1/3_2_0" index="0" speed="13.90" length="16.10" shape="935.35,2745.05 935.35,2740.27 935.35,2737.00 935.35,2733.73 935.35,2728.95"/>
    </edge>
    <edge id=":1/3_3" function="internal">
        <lane id=":1/3_3_0" index="0" speed="13.90" length="8.84" shape="935.35,2745.05 935.96,2740.81 937.78,2737.78 938.65,2737.25"/>
    </edge>
    <edge id=":1/3_14" function="internal">
        <lane id=":1/3_14_0" index="0" speed="13.90" length="6.80" shape="938.65,2737.25 940.81,2735.96 945.05,2735.35"/>
    </edge>
    <edge id=":1/3_4" function="internal">
        <lane id=":1/3_4_0" index="0" speed="13.90" length="5.00" shape="945.05,2741.95 943.69,2742.14 942.73,2742.72 942.14,2743.69 941.95,2745.05"/>
    </edge>
    <edge id=":1/3_5" function="internal">
        <lane id=":1/3_5_0" index="0" speed="13.90" length="16.10" shape="945.05,2738.65 940.27,2738.65 937.00,2738.65 933.73,2738.65 928.95,2738.65"/>
    </edge>
    <edge id=":1/3_6" function="internal">
        <lane id=":1/3_6_0" index="0" speed="13.90" length="15.64" shape="945.05,2738.65 940.81,2738.04 937.77,2736.23 935.96,2733.19 935.35,2728.95"/>
    </edge>
    <edge id=":1/3_7" function="internal">
        <lane id=":1/3_7_0" index="0" speed="13.90" length="5.00" shape="941.95,2728.95 942.14,2730.31 942.73,2731.28 943.69,2731.86 945.05,2732.05"/>
    </edge>
    <edge id=":1/3_8" function="internal">
        <lane id=":1/3_8_0" index="0" speed="13.90" length="16.10" shape="941.95,2728.95 941.95,2733.73 941.95,2737.00 941.95,2740.27 941.95,2745.05"/>
    </edge>
    <edge id=":1/3_9" function="internal">
        <lane id=":1/3_9_0" index="0" speed="13.90" length="16.10" shape="938.65,2728.95 938.65,2733.73 938.65,2737.00 938.65,2740.27 938.65,2745.05"/>
    </edge>
    <edge id=":1/3_10" function="internal">
        <lane id=":1/3_10_0" index="0" speed="13.90" length="8.84" shape="938.65,2728.95 938.04,2733.19 936.22,2736.22 935.35,2736.75"/>
    </edge>
    <edge id=":1/3_15" function="internal">
        <lane id=":1/3_15_0" index="0" speed="13.90" length="6.80" shape="935.35,2736.75 933.19,2738.04 928.95,2738.65"/>
    </edge>
    <edge id=":1/3_11" function="internal">
        <lane id=":1/3_11_0" index="0" speed="13.90" length="5.00" shape="928.95,2732.05 930.31,2731.86 931.27,2731.28 931.86,2730.31 932.05,2728.95"/>
    </edge>
    <edge id=":1/3_12" function="internal">
        <lane id=":1/3_12_0" index="0" speed="13.90" length="16.10" shape="928.95,2735.35 933.73,2735.35 937.00,2735.35 940.27,2735.35 945.05,2735.35"/>
    </edge>
    <edge id=":1/3_13" function="internal">
        <lane id=":1/3_13_0" index="0" speed="13.90" length="15.64" shape="928.95,2735.35 933.19,2735.96 936.23,2737.77 938.04,2740.81 938.65,2745.05"/>
    </edge>
    <edge id=":1/4_0" function="internal">
        <lane id=":1/4_0_0" index="0" speed="13.90" length="5.00" shape="932.05,3645.05 931.86,3643.69 931.27,3642.72 930.31,3642.14 928.95,3641.95"/>
    </edge>
    <edge id=":1/4_1" function="internal">
        <lane id=":1/4_1_0" index="0" speed="13.90" length="16.10" shape="932.05,3645.05 932.05,3640.27 932.05,3637.00 932.05,3633.73 932.05,3628.95"/>
    </edge>
    <edge id=":1/4_2" function="internal">