<?xml version="1.0" encoding="UTF-8"?>

<!-- generated on Fri May 23 15:28:50 2014 by SUMO netconvert Version 0.17.1
<?xml version="1.0" encoding="UTF-8"?>

<configuration xmlns:xsi="http://www.w3.org/2001/XMLSchema-instance" xsi:noNamespaceSchemaLocation="http://sumo.sf.net/xsd/netconvertConfiguration.xsd">

    <input>
        <osm-files value="/home/pierpaolo/Scrivania/scriptMirco/scriptMirco/facilitatore/v0.4/v0.4/Manhattan.osm"/>
    </input>

    <output>
        <output-file value="/home/pierpaolo/Scrivania/scriptMirco/scriptMirco/facilitatore/v0.4/v0.4/net/Manhattan/Manhattan.net.xml"/>
        <plain-output-prefix value="/home/pierpaolo/Scrivania/scriptMirco/scriptMirco/facilitatore/v0.4/v0.4/net/Manhattan/Manhattan"/>
    </output>

    <projection>
        <proj.utm value="true"/>
    </projection>

    <tls_building>
        <tls.join value="true"/>
    </tls_building>

    <ramp_guessing>
        <ramps.guess value="true"/>
    </ramp_guessing>

    <edge_removal>
        <remove-edges.by-vclass value="rail_slow,rail_fast,lightrail,cityrail,bicycle,pedestrian"/>
        <remove-edges.isolated value="true"/>
    </edge_removal>

    <processing>
        <no-turnarounds value="true"/>
        <no-turnarounds.tls value="true"/>
        <junctions.join value="true"/>
        <junctions.join-dist value="10"/>
    </processing>

    <report>
        <verbose value="true"/>
    </report>

</configuration>
-->

<net version="0.13" xmlns:xsi="http://www.w3.org/2001/XMLSchema-instance" xsi:noNamespaceSchemaLocation="http://sumo.sf.net/xsd/net_file.xsd">

    <location netOffset="-583595.78,-4507428.96" convBoundary="0.00,0.00,2990.04,3834.15" origBoundary="-74.032723,40.691901,-73.901051,40.811198" projParameter="+proj=utm +zone=18 +ellps=WGS84 +datum=WGS84 +units=m +no_defs"/>

    <edge id=":-195743555#5-AddedOnRampNode_0" function="internal">
        <lane id=":-195743555#5-AddedOnRampNode_0_0" index="0" speed="27.78" length="3.00" shape="671.75,2714.55 672.98,2711.82"/>
    </edge>
    <edge id=":-195743555#5-AddedOnRampNode_1" function="internal">
        <lane id=":-195743555#5-AddedOnRampNode_1_0" index="0" speed="27.78" length="3.00" shape="674.75,2715.92 675.99,2713.18"/>
    </edge>
    <edge id=":1251605769_0" function="internal">
        <lane id=":1251605769_0_0" index="0" speed="27.78" length="0.14" shape="1632.87,2387.94 1632.75,2387.87"/>
    </edge>
    <edge id=":1251605769_1" function="internal">
        <lane id=":1251605769_1_0" index="0" speed="27.78" length="0.43" shape="1634.75,2385.23 1634.39,2385.00"/>
    </edge>
    <edge id=":1692433910_0" function="internal">
        <lane id=":1692433910_0_0" index="0" speed="13.89" length="5.12" shape="1441.19,1337.34 1441.80,1338.63 1442.66,1339.37 1443.78,1339.57 1445.16,1339.22"/>
    </edge>
    <edge id=":1692433910_1" function="internal">
        <lane id=":1692433910_1_0" index="0" speed="13.89" length="6.32" shape="1439.23,1341.41 1445.16,1339.22"/>
    </edge>
    <edge id=":1692433911_0" function="internal">
        <lane id=":1692433911_0_0" index="0" speed="13.89" length="5.01" shape="1378.55,1361.21 1379.79,1360.62 1380.54,1359.77 1380.80,1358.67 1380.57,1357.32"/>
    </edge>
    <edge id=":1692433911_1" function="internal">
        <lane id=":1692433911_1_0" index="0" speed="13.89" length="6.22" shape="1378.55,1361.21 1384.48,1359.32"/>
    </edge>
    <edge id=":1692433914_0" function="internal">
        <lane id=":1692433914_0_0" index="0" speed="13.89" length="4.99" shape="1320.05,1377.78 1320.69,1378.99 1321.57,1379.70 1322.67,1379.93 1324.01,1379.67"/>
    </edge>
    <edge id=":1692433914_1" function="internal">
        <lane id=":1692433914_1_0" index="0" speed="13.89" length="5.79" shape="1318.82,1382.22 1324.01,1379.67"/>
    </edge>
    <edge id=":1692433916_0" function="internal">
        <lane id=":1692433916_0_0" index="0" speed="20.83" length="5.09" shape="1305.55,1387.25 1306.42,1388.36 1307.42,1388.90 1308.56,1388.86 1309.82,1388.25"/>
    </edge>
    <edge id=":1692433916_1" function="internal">
        <lane id=":1692433916_1_0" index="0" speed="27.78" length="6.57" shape="1305.55,1387.25 1308.81,1392.96"/>
    </edge>
    <edge id=":1692433916_2" function="internal">
        <lane id=":1692433916_2_0" index="0" speed="27.78" length="6.57" shape="1302.69,1388.89 1305.94,1394.59"/>
    </edge>
    <edge id=":1692433916_3" function="internal">
        <lane id=":1692433916_3_0" index="0" speed="13.89" length="9.69" shape="1301.69,1393.51 1309.82,1388.25"/>
    </edge>
    <edge id=":1692433916_4" function="internal">
        <lane id=":1692433916_4_0" index="0" speed="20.83" length="5.05" shape="1301.69,1393.51 1302.96,1392.95 1304.10,1392.95 1305.09,1393.49 1305.94,1394.59"/>
    </edge>
    <edge id=":1692433918_0" function="internal">
        <lane id=":1692433918_0_0" index="0" speed="13.89" length="5.01" shape="1269.23,1410.06 1270.14,1411.10 1271.16,1411.62 1272.29,1411.60 1273.54,1411.05"/>
    </edge>
    <edge id=":1692433918_1" function="internal">
        <lane id=":1692433918_1_0" index="0" speed="13.89" length="6.18" shape="1268.31,1414.35 1273.54,1411.05"/>
    </edge>
    <edge id=":1692433919_0" function="internal">
        <lane id=":1692433919_0_0" index="0" speed="27.78" length="6.33" shape="1203.89,1459.30 1200.68,1453.85"/>
    </edge>
    <edge id=":1692433919_1" function="internal">
        <lane id=":1692433919_1_0" index="0" speed="27.78" length="6.52" shape="1206.78,1457.71 1203.48,1452.09"/>
    </edge>
    <edge id=":1692433919_2" function="internal">
        <lane id=":1692433919_2_0" index="0" speed="20.83" length="5.35" shape="1206.78,1457.71 1206.23,1456.30 1206.20,1455.05 1206.71,1453.97 1207.76,1453.05"/>
    </edge>
    <edge id=":1692433919_3" function="internal">
        <lane id=":1692433919_3_0" index="0" speed="20.83" length="5.12" shape="1199.64,1458.22 1200.72,1457.30 1201.26,1456.27 1201.24,1455.11 1200.68,1453.85"/>
    </edge>
    <edge id=":1692433919_4" function="internal">
        <lane id=":1692433919_4_0" index="0" speed="13.89" length="9.62" shape="1199.64,1458.22 1207.76,1453.05"/>
    </edge>
    <edge id=":1692433920_0" function="internal">
        <lane id=":1692433920_0_0" index="0" speed="13.89" length="6.22" shape="1136.04,1502.34 1132.71,1497.08"/>
    </edge>
    <edge id=":1692433920_1" function="internal">
        <lane id=":1692433920_1_0" index="0" speed="13.89" length="5.02" shape="1136.04,1502.34 1135.48,1501.08 1135.45,1499.94 1135.95,1498.93 1136.99,1498.03"/>
    </edge>
    <edge id=":1692433920_2" function="internal">
        <lane id=":1692433920_2_0" index="0" speed="13.89" length="5.02" shape="1131.76,1501.39 1132.80,1500.49 1133.31,1499.47 1133.28,1498.33 1132.71,1497.08"/>
    </edge>
    <edge id=":1692433920_3" function="internal">
        <lane id=":1692433920_3_0" index="0" speed="13.89" length="6.22" shape="1131.76,1501.39 1136.99,1498.03"/>
    </edge>
    <edge id=":1692433921_0" function="internal">
        <lane id=":1692433921_0_0" index="0" speed="9.72" length="7.95" shape="1070.75,1544.77 1070.27,1543.37 1070.70,1541.88 1072.04,1540.27 1074.30,1538.57"/>
    </edge>
    <edge id=":1692433921_1" function="internal">
        <lane id=":1692433921_1_0" index="0" speed="13.89" length="9.49" shape="1066.30,1543.67 1074.30,1538.57"/>
    </edge>
    <edge id=":1692433921_2" function="internal">
        <lane id=":1692433921_2_0" index="0" speed="9.72" length="7.90" shape="1066.30,1543.67 1068.75,1542.36 1070.77,1541.79 1072.33,1541.96 1073.46,1542.88"/>
    </edge>
    <edge id=":1692433922_0" function="internal">
        <lane id=":1692433922_0_0" index="0" speed="5.56" length="0.10" shape="1078.55,1555.88 1078.56,1555.90"/>
    </edge>
    <edge id=":1692433922_1" function="internal">
        <lane id=":1692433922_1_0" index="0" speed="5.56" length="0.10" shape="1081.27,1554.02 1081.28,1554.02"/>
    </edge>
    <edge id=":1692433923_0" function="internal">
        <lane id=":1692433923_0_0" index="0" speed="5.56" length="0.17" shape="1088.48,1570.45 1088.39,1570.31"/>
    </edge>
    <edge id=":1692433923_1" function="internal">
        <lane id=":1692433923_1_0" index="0" speed="5.56" length="0.10" shape="1091.19,1568.57 1091.21,1568.60"/>
    </edge>
    <edge id=":1692433924_0" function="internal">
        <lane id=":1692433924_0_0" index="0" speed="9.72" length="7.87" shape="1005.98,1585.28 1005.60,1583.90 1006.10,1582.43 1007.48,1580.87 1009.74,1579.22"/>
    </edge>
    <edge id=":1692433924_1" function="internal">
        <lane id=":1692433924_1_0" index="0" speed="13.89" length="9.51" shape="1001.71,1584.29 1009.74,1579.22"/>
    </edge>
    <edge id=":1692433924_2" function="internal">
        <lane id=":1692433924_2_0" index="0" speed="9.72" length="7.89" shape="1001.71,1584.29 1004.18,1582.96 1006.19,1582.39 1007.73,1582.59 1008.79,1583.56"/>
    </edge>
    <edge id=":1692433925_0" function="internal">
        <lane id=":1692433925_0_0" index="0" speed="5.56" length="0.10" shape="1013.17,1597.02 1013.16,1597.00"/>
    </edge>
    <edge id=":1692433925_1" function="internal">
        <lane id=":1692433925_1_0" index="0" speed="5.56" length="0.10" shape="1015.97,1595.27 1015.95,1595.24"/>
    </edge>
    <edge id=":1692433926_0" function="internal">
        <lane id=":1692433926_0_0" index="0" speed="5.56" length="0.10" shape="1022.71,1611.89 1022.71,1611.90"/>
    </edge>
    <edge id=":1692433926_1" function="internal">
        <lane id=":1692433926_1_0" index="0" speed="5.56" length="0.10" shape="1025.50,1610.13 1025.50,1610.13"/>
    </edge>
    <edge id=":1692433928_0" function="internal">
        <lane id=":1692433928_0_0" index="0" speed="13.89" length="6.25" shape="939.67,1627.33 936.36,1622.03"/>
    </edge>
    <edge id=":1692433928_1" function="internal">
        <lane id=":1692433928_1_0" index="0" speed="13.89" length="4.74" shape="939.67,1627.33 939.29,1625.96 939.79,1624.50 940.96,1623.17"/>
    </edge>
    <edge id=":1692433928_7" function="internal">
        <lane id=":1692433928_7_0" index="0" speed="13.89" length="3.13" shape="940.96,1623.17 941.17,1622.93 943.43,1621.26"/>
    </edge>
    <edge id=":1692433928_2" function="internal">
        <lane id=":1692433928_2_0" index="0" speed="13.89" length="5.01" shape="939.16,1620.29 940.04,1621.34 941.05,1621.85 942.18,1621.83 943.43,1621.26"/>
    </edge>
    <edge id=":1692433928_3" function="internal">
        <lane id=":1692433928_3_0" index="0" speed="13.89" length="6.24" shape="939.16,1620.29 942.47,1625.58"/>
    </edge>
    <edge id=":1692433928_4" function="internal">
        <lane id=":1692433928_4_0" index="0" speed="13.89" length="5.05" shape="935.39,1626.36 936.44,1625.47 936.95,1624.45 936.92,1623.30 936.36,1622.03"/>
    </edge>
    <edge id=":1692433928_5" function="internal">
        <lane id=":1692433928_5_0" index="0" speed="13.89" length="9.52" shape="935.39,1626.36 943.43,1621.26"/>
    </edge>
    <edge id=":1692433928_6" function="internal">
        <lane id=":1692433928_6_0" index="0" speed="13.89" length="3.13" shape="935.39,1626.36 937.87,1625.03 938.17,1624.94"/>
    </edge>
    <edge id=":1692433928_8" function="internal">
        <lane id=":1692433928_8_0" index="0" speed="13.89" length="4.73" shape="938.17,1624.94 939.87,1624.45 941.40,1624.64 942.47,1625.58"/>
    </edge>
    <edge id=":1692433929_0" function="internal">
        <lane id=":1692433929_0_0" index="0" speed="5.56" length="0.10" shape="1136.40,1647.41 1136.39,1647.39"/>
    </edge>
    <edge id=":1692433929_1" function="internal">
        <lane id=":1692433929_1_0" index="0" speed="5.56" length="0.10" shape="1139.19,1645.64 1139.18,1645.62"/>
    </edge>
    <edge id=":1692433930_0" function="internal">
        <lane id=":1692433930_0_0" index="0" speed="5.56" length="0.10" shape="1145.92,1662.15 1145.93,1662.15"/>
    </edge>
    <edge id=":1692433930_1" function="internal">
        <lane id=":1692433930_1_0" index="0" speed="5.56" length="0.10" shape="1148.70,1660.37 1148.70,1660.37"/>
    </edge>
    <edge id=":1692433932_0" function="internal">
        <lane id=":1692433932_0_0" index="0" speed="13.89" length="6.21" shape="879.97,1665.23 876.67,1659.96"/>
    </edge>
    <edge id=":1692433932_1" function="internal">
        <lane id=":1692433932_1_0" index="0" speed="13.89" length="5.02" shape="879.97,1665.23 879.42,1663.97 879.39,1662.84 879.90,1661.82 880.94,1660.93"/>
    </edge>
    <edge id=":1692433932_2" function="internal">
        <lane id=":1692433932_2_0" index="0" speed="13.89" length="5.02" shape="875.70,1664.26 876.74,1663.37 877.25,1662.35 877.23,1661.22 876.67,1659.96"/>
    </edge>
    <edge id=":1692433932_3" function="internal">
        <lane id=":1692433932_3_0" index="0" speed="13.89" length="6.21" shape="875.70,1664.26 880.94,1660.93"/>
    </edge>
    <edge id=":1692433933_0" function="internal">
        <lane id=":1692433933_0_0" index="0" speed="5.56" length="0.10" shape="1072.01,1688.18 1072.02,1688.19"/>
    </edge>
    <edge id=":1692433933_1" function="internal">
        <lane id=":1692433933_1_0" index="0" speed="5.56" length="0.10" shape="1074.76,1686.35 1074.76,1686.36"/>
    </edge>
    <edge id=":1692433934_0" function="internal">
        <lane id=":1692433934_0_0" index="0" speed="5.56" length="0.10" shape="1081.48,1702.43 1081.53,1702.51"/>
    </edge>
    <edge id=":1692433934_1" function="internal">
        <lane id=":1692433934_1_0" index="0" speed="5.56" length="0.10" shape="1084.28,1700.69 1084.33,1700.77"/>
    </edge>
    <edge id=":1692433935_0" function="internal">
        <lane id=":1692433935_0_0" index="0" speed="13.89" length="5.01" shape="812.11,1700.91 813.01,1701.96 814.03,1702.47 815.16,1702.44 816.41,1701.88"/>
    </edge>
    <edge id=":1692433935_1" function="internal">
        <lane id=":1692433935_1_0" index="0" speed="13.89" length="6.21" shape="812.11,1700.91 815.44,1706.16"/>
    </edge>
    <edge id=":1692433935_2" function="internal">
        <lane id=":1692433935_2_0" index="0" speed="13.89" length="6.21" shape="811.15,1705.19 816.41,1701.88"/>
    </edge>
    <edge id=":1692433935_3" function="internal">
        <lane id=":1692433935_3_0" index="0" speed="13.89" length="5.01" shape="811.15,1705.19 812.41,1704.63 813.54,1704.61 814.55,1705.12 815.44,1706.16"/>
    </edge>
    <edge id=":1692433936_0" function="internal">
        <lane id=":1692433936_0_0" index="0" speed="13.89" length="9.50" shape="1098.22,1718.24 1090.18,1723.31"/>
    </edge>
    <edge id=":1692433936_1" function="internal">
        <lane id=":1692433936_1_0" index="0" speed="9.72" length="7.94" shape="1098.22,1718.24 1095.73,1719.57 1093.71,1720.12 1092.18,1719.88 1091.11,1718.87"/>
    </edge>
    <edge id=":1692433936_2" function="internal">
        <lane id=":1692433936_2_0" index="0" speed="9.72" length="7.90" shape="1093.96,1717.20 1094.32,1718.60 1093.81,1720.09 1092.43,1721.66 1090.18,1723.31"/>
    </edge>
    <edge id=":1692433938_0" function="internal">
        <lane id=":1692433938_0_0" index="0" speed="22.22" length="6.23" shape="750.83,1746.60 747.50,1741.33"/>
    </edge>
    <edge id=":1692433938_1" function="internal">
        <lane id=":1692433938_1_0" index="0" speed="18.06" length="5.03" shape="750.83,1746.60 750.26,1745.34 750.23,1744.20 750.74,1743.19 751.79,1742.30"/>
    </edge>
    <edge id=":1692433938_2" function="internal">
        <lane id=":1692433938_2_0" index="0" speed="18.06" length="5.05" shape="746.54,1745.68 747.58,1744.76 748.09,1743.73 748.06,1742.58 747.50,1741.33"/>
    </edge>
    <edge id=":1692433938_3" function="internal">
        <lane id=":1692433938_3_0" index="0" speed="13.89" length="6.24" shape="746.54,1745.68 751.79,1742.30"/>
    </edge>
    <edge id=":1692433939_0" function="internal">
        <lane id=":1692433939_0_0" index="0" speed="18.06" length="5.01" shape="805.47,1839.57 804.59,1838.52 803.58,1838.00 802.45,1838.03 801.20,1838.60"/>
    </edge>
    <edge id=":1692433939_1" function="internal">
        <lane id=":1692433939_1_0" index="0" speed="22.22" length="6.23" shape="808.27,1837.82 805.00,1832.51"/>
    </edge>
    <edge id=":1692433940_0" function="internal">
        <lane id=":1692433940_0_0" index="0" speed="18.06" length="7.89" shape="839.48,1887.55 838.41,1886.62 836.87,1886.45 834.85,1887.03 832.36,1888.38"/>
    </edge>
    <edge id=":1692433940_1" function="internal">
        <lane id=":1692433940_1_0" index="0" speed="22.22" length="7.07" shape="839.48,1887.55 833.32,1884.07"/>
    </edge>
    <edge id=":1692433940_2" function="internal">
        <lane id=":1692433940_2_0" index="0" speed="13.89" length="9.50" shape="840.39,1883.29 832.36,1888.38"/>
    </edge>
    <edge id=":1692433940_3" function="internal">
        <lane id=":1692433940_3_0" index="0" speed="18.06" length="5.01" shape="840.39,1883.29 839.14,1883.86 838.01,1883.88 837.00,1883.37 836.12,1882.32"/>
    </edge>
    <edge id=":1692433941_0" function="internal">
        <lane id=":1692433941_0_0" index="0" speed="22.22" length="7.02" shape="881.05,1958.91 880.60,1951.90"/>
    </edge>
    <edge id=":1692433941_1" function="internal">
        <lane id=":1692433941_1_0" index="0" speed="18.06" length="5.07" shape="883.86,1957.17 883.32,1955.92 883.31,1954.78 883.83,1953.74 884.89,1952.81"/>
    </edge>
    <edge id=":1692433941_2" function="internal">
        <lane id=":1692433941_2_0" index="0" speed="22.22" length="7.86" shape="876.79,1957.89 879.09,1956.26 880.49,1954.72 880.99,1953.26 880.60,1951.90"/>
    </edge>
    <edge id=":1692433941_3" function="internal">
        <lane id=":1692433941_3_0" index="0" speed="18.06" length="9.57" shape="876.79,1957.89 884.89,1952.81"/>
    </edge>
    <edge id=":1692433942_0" function="internal">
        <lane id=":1692433942_0_0" index="0" speed="22.22" length="6.18" shape="923.70,2021.24 920.39,2016.02"/>
    </edge>
    <edge id=":1692433942_1" function="internal">
        <lane id=":1692433942_1_0" index="0" speed="22.22" length="4.99" shape="916.60,2022.03 917.65,2021.14 918.16,2020.14 918.14,2019.01 917.59,2017.76"/>
    </edge>
    <edge id=":1773060098_0" function="internal">
        <lane id=":1773060098_0_0" index="0" speed="13.89" length="0.10" shape="989.17,13.74 989.17,13.74"/>
    </edge>
    <edge id=":1773121031_0" function="internal">
        <lane id=":1773121031_0_0" index="0" speed="27.78" length="4.13" shape="1567.91,1573.86 1566.53,1569.97"/>
    </edge>
    <edge id=":1773121031_1" function="internal">
        <lane id=":1773121031_1_0" index="0" speed="27.78" length="3.36" shape="1570.87,1572.40 1569.75,1569.24"/>
    </edge>
    <edge id=":1773121031_2" function="internal">
        <lane id=":1773121031_2_0" index="0" speed="27.78" length="5.77" shape="1556.57,1575.99 1560.10,1571.42"/>
    </edge>
    <edge id=":1773121031_3" function="internal">
        <lane id=":1773121031_3_0" index="0" speed="27.78" length="5.27" shape="1559.14,1573.92 1563.31,1570.70"/>
    </edge>
    <edge id=":1773121034_0" function="internal">
        <lane id=":1773121034_0_0" index="0" speed="20.83" length="5.00" shape="1600.26,1587.53 1599.15,1588.33 1598.56,1589.29 1598.50,1590.42 1598.96,1591.71"/>
    </edge>
    <edge id=":1773121034_1" function="internal">
        <lane id=":1773121034_1_0" index="0" speed="27.78" length="11.88" shape="1590.94,1582.59 1591.98,1585.93 1593.02,1588.11 1594.29,1590.19 1596.04,1593.25"/>
    </edge>
    <edge id=":1773121034_2" function="internal">
        <lane id=":1773121034_2_0" index="0" speed="27.78" length="11.89" shape="1587.94,1584.16 1588.99,1587.50 1590.06,1589.67 1591.36,1591.73 1593.12,1594.80"/>
    </edge>
    <edge id=":1773121036_0" function="internal">
        <lane id=":1773121036_0_0" index="0" speed="27.78" length="0.10" shape="1577.35,1592.96 1577.36,1592.99"/>
    </edge>
    <edge id=":1773121036_1" function="internal">
        <lane id=":1773121036_1_0" index="0" speed="27.78" length="0.10" shape="1580.38,1591.65 1580.35,1591.58"/>
    </edge>
    <edge id=":1773121037_0" function="internal">
        <lane id=":1773121037_0_0" index="0" speed="27.78" length="9.40" shape="1639.44,1688.06 1632.67,1681.53"/>
    </edge>
    <edge id=":1773121037_1" function="internal">
        <lane id=":1773121037_1_0" index="0" speed="27.78" length="11.07" shape="1642.43,1686.66 1640.85,1683.86 1639.31,1682.25 1637.41,1680.91 1634.75,1678.96"/>
    </edge>
    <edge id=":1773121037_2" function="internal">
        <lane id=":1773121037_2_0" index="0" speed="27.78" length="11.71" shape="1640.72,1675.23 1642.61,1678.05 1644.56,1679.54 1646.52,1681.04 1648.41,1683.86"/>
    </edge>
    <edge id=":1773121037_3" function="internal">
        <lane id=":1773121037_3_0" index="0" speed="27.78" length="11.08" shape="1640.72,1675.23 1642.12,1678.20 1643.07,1680.24 1644.02,1682.28 1645.42,1685.26"/>
    </edge>
    <edge id=":1773121037_4" function="internal">
        <lane id=":1773121037_4_0" index="0" speed="27.78" length="9.26" shape="1637.73,1676.62 1638.89,1679.64 1638.78,1681.03 1637.40,1680.81 1634.75,1678.96"/>
    </edge>
    <edge id=":1775267750_0" function="internal">
        <lane id=":1775267750_0_0" index="0" speed="22.22" length="0.10" shape="1812.22,1082.57 1812.24,1082.56"/>
    </edge>
    <edge id=":1775267750_1" function="internal">
        <lane id=":1775267750_1_0" index="0" speed="22.22" length="0.10" shape="1810.95,1079.52 1811.02,1079.50"/>
    </edge>
    <edge id=":1775267750_2" function="internal">
        <lane id=":1775267750_2_0" index="0" speed="22.22" length="0.10" shape="1809.77,1076.44 1809.81,1076.43"/>
    </edge>
    <edge id=":1918039864_0" function="internal">
        <lane id=":1918039864_0_0" index="0" speed="22.22" length="0.10" shape="1471.91,1185.97 1471.91,1185.97"/>
    </edge>
    <edge id=":1918039864_1" function="internal">
        <lane id=":1918039864_1_0" index="0" speed="22.22" length="0.10" shape="1473.24,1188.99 1473.24,1188.99"/>
    </edge>
    <edge id=":1918039864_2" function="internal">
        <lane id=":1918039864_2_0" index="0" speed="22.22" length="0.10" shape="1474.58,1192.00 1474.57,1192.00"/>
    </edge>
    <edge id=":1918039901_0" function="internal">
        <lane id=":1918039901_0_0" index="0" speed="13.89" length="13.27" shape="1346.16,1249.89 1345.07,1246.58 1344.09,1243.59 1343.11,1240.59 1342.03,1237.28"/>
    </edge>
    <edge id=":1918039901_1" function="internal">
        <lane id=":1918039901_1_0" index="0" speed="18.06" length="3.29" shape="1346.16,1249.89 1345.44,1247.00 1345.43,1246.69"/>
    </edge>
    <edge id=":1918039901_7" function="internal">
        <lane id=":1918039901_7_0" index="0" speed="18.06" length="5.22" shape="1345.43,1246.69 1345.37,1244.76 1345.97,1243.16 1347.23,1242.20"/>
    </edge>
    <edge id=":1918039901_2" function="internal">
        <lane id=":1918039901_2_0" index="0" speed="18.06" length="5.81" shape="1346.16,1249.89 1345.90,1248.37 1346.19,1247.10 1347.04,1246.06 1348.45,1245.27"/>
    </edge>
    <edge id=":1918039901_3" function="internal">
        <lane id=":1918039901_3_0" index="0" speed="18.06" length="6.55" shape="1338.99,1242.43 1340.69,1241.31 1341.76,1240.07 1342.21,1238.73 1342.03,1237.28"/>
    </edge>
    <edge id=":1918039901_4" function="internal">
        <lane id=":1918039901_4_0" index="0" speed="22.22" length="7.75" shape="1338.99,1242.43 1346.00,1239.14"/>
    </edge>
    <edge id=":1918039901_5" function="internal">
        <lane id=":1918039901_5_0" index="0" speed="22.22" length="7.39" shape="1340.54,1245.34 1347.23,1242.20"/>
    </edge>
    <edge id=":1918039901_6" function="internal">
        <lane id=":1918039901_6_0" index="0" speed="22.22" length="7.03" shape="1342.09,1248.26 1348.45,1245.27"/>
    </edge>
    <edge id=":1918039904_0" function="internal">
        <lane id=":1918039904_0_0" index="0" speed="22.22" length="0.10" shape="1483.07,1181.04 1483.07,1181.05"/>
    </edge>
    <edge id=":1918039904_1" function="internal">
        <lane id=":1918039904_1_0" index="0" speed="22.22" length="0.10" shape="1484.30,1184.11 1484.30,1184.11"/>
    </edge>
    <edge id=":1918039904_2" function="internal">
        <lane id=":1918039904_2_0" index="0" speed="22.22" length="0.29" shape="1485.43,1187.22 1485.70,1187.11"/>
    </edge>
    <edge id=":196117073-AddedOffRampNode_0" function="internal">
        <lane id=":196117073-AddedOffRampNode_0_0" index="0" speed="27.78" length="7.25" shape="956.33,2743.17 956.80,2750.40"/>
    </edge>
    <edge id=":196117073-AddedOffRampNode_1" function="internal">
        <lane id=":196117073-AddedOffRampNode_1_0" index="0" speed="27.78" length="7.25" shape="954.77,2740.26 955.24,2747.49"/>
    </edge>
    <edge id=":196117073-AddedOffRampNode_2" function="internal">
        <lane id=":196117073-AddedOffRampNode_2_0" index="0" speed="27.78" length="4.46" shape="954.77,2740.26 953.69,2744.58"/>
    </edge>
    <edge id=":196117073-AddedOffRampNode_3" function="internal">
        <lane id=":196117073-AddedOffRampNode_3_0" index="0" speed="27.78" length="3.00" shape="954.77,2740.26 952.13,2741.68"/>
    </edge>
    <edge id=":2073945861_0" function="internal">
        <lane id=":2073945861_0_0" index="0" speed="22.22" length="0.10" shape="1090.31,2004.05 1090.31,2004.05"/>
    </edge>
    <edge id=":2073945872_0" function="internal">
        <lane id=":2073945872_0_0" index="0" speed="22.22" length="0.10" shape="1120.52,1987.02 1120.52,1987.02"/>
    </edge>
    <edge id=":2073945872_1" function="internal">
        <lane id=":2073945872_1_0" index="0" speed="22.22" length="0.10" shape="1118.77,1984.22 1118.77,1984.22"/>
    </edge>
    <edge id=":2077984658_0" function="internal">
        <lane id=":2077984658_0_0" index="0" speed="27.78" length="0.10" shape="1651.59,2401.47 1651.59,2401.46"/>
    </edge>
    <edge id=":2077984658_1" function="internal">
        <lane id=":2077984658_1_0" index="0" speed="27.78" length="0.10" shape="1653.68,2398.92 1653.69,2398.92"/>
    </edge>
    <edge id=":2077984663_0" function="internal">
        <lane id=":2077984663_0_0" index="0" speed="27.78" length="0.10" shape="1654.57,2403.91 1654.57,2403.91"/>
    </edge>
    <edge id=":2077984663_1" function="internal">
        <lane id=":2077984663_1_0" index="0" speed="27.78" length="0.10" shape="1656.67,2401.36 1656.67,2401.36"/>
    </edge>
    <edge id=":2077984664_0" function="internal">
        <lane id=":2077984664_0_0" index="0" speed="27.78" length="0.10" shape="1571.13,2413.86 1571.13,2413.86"/>
    </edge>
    <edge id=":2077984664_1" function="internal">
        <lane id=":2077984664_1_0" index="0" speed="27.78" length="0.10" shape="1569.59,2410.95 1569.59,2410.95"/>
    </edge>
    <edge id=":2077984664_2" function="internal">
        <lane id=":2077984664_2_0" index="0" speed="27.78" length="0.10" shape="1566.50,2405.11 1566.50,2405.11"/>
    </edge>
    <edge id=":2077984664_3" function="internal">
        <lane id=":2077984664_3_0" index="0" speed="27.78" length="0.10" shape="1568.04,2408.03 1568.04,2408.03"/>
    </edge>
    <edge id=":24263967#1-AddedOnRampNode_0" function="internal">
        <lane id=":24263967#1-AddedOnRampNode_0_0" index="0" speed="22.22" length="3.00" shape="491.13,1666.71 488.14,1667.00"/>
    </edge>
    <edge id=":24264114#8-AddedOnRampNode_0" function="internal">
        <lane id=":24264114#8-AddedOnRampNode_0_0" index="0" speed="22.22" length="3.00" shape="253.63,2157.49 250.73,2156.72"/>
    </edge>
    <edge id=":246670216_0" function="internal">
        <lane id=":246670216_0_0" index="0" speed="27.78" length="0.18" shape="1691.58,2377.07 1691.57,2377.25"/>
    </edge>
    <edge id=":246670216_1" function="internal">
        <lane id=":246670216_1_0" index="0" speed="27.78" length="0.54" shape="1688.30,2376.67 1688.27,2377.21"/>
    </edge>
    <edge id=":2477560563_0" function="internal">
        <lane id=":2477560563_0_0" index="0" speed="13.89" length="0.10" shape="690.56,1782.78 690.56,1782.78"/>
    </edge>
    <edge id=":2477560572_0" function="internal">
        <lane id=":2477560572_0_0" index="0" speed="27.78" length="0.10" shape="637.62,1712.69 637.62,1712.69"/>
    </edge>
    <edge id=":2477560572_1" function="internal">
        <lane id=":2477560572_1_0" index="0" speed="27.78" length="0.10" shape="634.47,1713.70 634.47,1713.68"/>
    </edge>
    <edge id=":2522434121_0" function="internal">
        <lane id=":2522434121_0_0" index="0" speed="13.89" length="0.26" shape="574.99,1688.17 574.79,1688.33"/>
    </edge>
    <edge id=":339044224_0" function="internal">
        <lane id=":339044224_0_0" index="0" speed="22.22" length="5.68" shape="354.53,2183.72 348.96,2182.67"/>
    </edge>
    <edge id=":339044224_1" function="internal">
        <lane id=":339044224_1_0" index="0" speed="22.22" length="4.78" shape="353.47,2177.40 352.82,2178.50 351.96,2179.21 350.90,2179.52 349.62,2179.43"/>
    </edge>
    <edge id=":390519635_0" function="internal">
        <lane id=":390519635_0_0" index="0" speed="27.78" length="0.10" shape="2178.47,2692.17 2178.47,2692.17"/>
    </edge>
    <edge id=":390519635_1" function="internal">
        <lane id=":390519635_1_0" index="0" speed="27.78" length="0.10" shape="2181.38,2690.61 2181.38,2690.61"/>
    </edge>
    <edge id=":390519635_2" function="internal">
        <lane id=":390519635_2_0" index="0" speed="27.78" length="0.10" shape="2187.19,2687.48 2187.19,2687.48"/>
    </edge>
    <edge id=":390519635_3" function="internal">
        <lane id=":390519635_3_0" index="0" speed="27.78" length="0.10" shape="2184.28,2689.04 2184.28,2689.04"/>
    </edge>
    <edge id=":42421877_0" function="internal">
        <lane id=":42421877_0_0" index="0" speed="25.00" length="5.01" shape="1190.09,2160.60 1189.28,2159.49 1188.31,2158.91 1187.18,2158.86 1185.89,2159.33"/>
    </edge>
    <edge id=":42421877_1" function="internal">