<?xml version="1.0" encoding="UTF-8"?>

<!-- generated on Fri May 23 15:28:51 2014 by SUMO polyconvert Version 0.17.1
<?xml version="1.0" encoding="UTF-8"?>

<configuration xmlns:xsi="http://www.w3.org/2001/XMLSchema-instance" xsi:noNamespaceSchemaLocation="http://sumo.sf.net/xsd/polyconvertConfiguration.xsd">

    <input>
        <net-file value="/home/pierpaolo/Scrivania/scriptMirco/scriptMirco/facilitatore/v0.4/v0.4/net/Manhattan/Manhattan.net.xml"/>
        <osm-files value="/home/pierpaolo/Scrivania/scriptMirco/scriptMirco/facilitatore/v0.4/v0.4/Manhattan.osm"/>
        <type-file value="requiredFiles/typemap_example.xml"/>
    </input>

    <output>
        <output-file value="/home/pierpaolo/Scrivania/scriptMirco/scriptMirco/facilitatore/v0.4/v0.4/net/Manhattan/Manhattan.poly.xml"/>
    </output>

    <pruning>
        <prune.in-net value="true"/>
    </pruning>

    <report>
        <verbose value="true"/>
    </report>

</configuration>
-->

<shapes>
    <poly id="108156090" type="amenity" color="237,199,199" fill="1" layer="-1.00" shape="849.96,2138.09 723.16,1894.12 1004.22,1720.93 867.79,1506.23 1058.59,1384.95 1083.23,1424.28 1149.46,1381.53 1164.89,1405.48 1098.56,1448.44 1133.29,1503.68 1201.13,1459.75 1285.43,1591.93 1215.43,1635.04 1267.14,1712.71 1337.35,1670.73 1414.23,1793.08 1280.20,1879.63 1347.49,1983.43 1156.64,2085.52 1016.10,2156.54 961.85,2070.20 849.96,2138.09"/>
    <poly id="109294057" type="tourism" color="207,245,201" fill="1" layer="-2.00" shape="1550.54,2428.73 1614.39,2547.99 1627.32,2572.67 1657.48,2629.29 1738.90,2584.77 1746.10,2578.23 1749.25,2571.27 1745.66,2560.83 1727.06,2526.89 1692.04,2463.21 1685.27,2450.55 1675.67,2434.67 1663.91,2419.41 1651.19,2406.59 1638.55,2397.69 1629.74,2392.69 1622.91,2391.30 1615.66,2393.22 1550.54,2428.73"/>
    <poly id="110310945" type="landuse" color="194,194,130" fill="1" layer="-3.00" shape="1062.58,1938.81 1059.65,1938.40 1056.25,1936.31 1054.56,1933.89 1053.88,1931.62 1053.95,1928.67 1055.11,1925.79 1057.11,1923.61 1060.63,1922.03 1063.58,1921.97 1066.31,1922.89 1068.63,1924.70 1069.67,1926.15 1070.67,1928.91 1070.57,1932.23 1069.42,1934.94 1067.87,1936.73 1065.34,1938.24 1062.58,1938.81"/>
    <poly id="155075464" type="building" color="255,230,230" fill="1" layer="-1.00" shape="997.60,1794.45 979.03,1806.34 1012.01,1857.45 1027.93,1847.27 1029.00,1848.95 1054.00,1833.23 1052.80,1831.34 1055.09,1829.88 1045.07,1814.34 1022.36,1778.25 997.32,1794.00 997.60,1794.45"/>
    <poly id="158413988" type="building" color="255,230,230" fill="1" layer="-1.00" shape="1818.82,2362.66 1815.28,2364.54 1798.94,2373.23 1788.35,2378.86 1766.91,2390.24 1756.31,2395.88 1739.98,2404.57 1736.44,2406.45 1702.14,2424.72 1698.91,2418.47 1705.99,2349.38 1709.53,2347.51 1725.89,2338.89 1736.51,2333.29 1757.93,2322.09 1768.52,2316.44 1784.84,2307.73 1788.41,2305.80 1790.27,2309.37 1797.83,2323.43 1809.40,2345.07 1816.93,2359.14 1818.82,2362.66"/>
    <poly id="160947235" type="amenity" color="237,199,199" fill="1" layer="-1.00" shape="1629.23,2077.84 1623.76,2079.01 1611.68,2081.45 1610.67,2076.49 1594.79,2079.73 1593.83,2075.07 1590.48,2075.75 1588.72,2067.16 1592.16,2066.46 1591.17,2061.63 1595.55,2060.80 1607.70,2058.20 1606.65,2053.32 1619.48,2050.58 1620.79,2056.68 1629.61,2054.80 1630.57,2059.24 1636.73,2057.92 1638.70,2067.02 1632.09,2068.43 1633.18,2073.42 1628.49,2074.43 1629.23,2077.84"/>
    <poly id="160947235#1" type="building" color="255,230,230" fill="1" layer="-1.00" shape="1629.23,2077.84 1623.76,2079.01 1611.68,2081.45 1610.67,2076.49 1594.79,2079.73 1593.83,2075.07 1590.48,2075.75 1588.72,2067.16 1592.16,2066.46 1591.17,2061.63 1595.55,2060.80 1607.70,2058.20 1606.65,2053.32 1619.48,2050.58 1620.79,2056.68 1629.61,2054.80 1630.57,2059.24 1636.73,2057.92 1638.70,2067.02 1632.09,2068.43 1633.18,2073.42 1628.49,2074.43 1629.23,2077.84"/>
    <poly id="160947243" type="building" color="255,230,230" fill="1" layer="-1.00" shape="1659.29,2086.29 1646.21,2088.89 1640.77,2089.96 1640.24,2086.75 1637.33,2073.26 1641.71,2072.32 1640.48,2066.63 1652.34,2064.09 1654.78,2063.70 1659.29,2086.29"/>
    <poly id="171562481" type="tourism" color="207,245,201" fill="1" layer="-2.00" shape="662.20,1836.76 648.83,1865.53 648.60,1866.13 648.46,1866.70 648.44,1867.18 648.49,1867.57 648.62,1867.88 648.93,1868.23 649.45,1868.60 650.17,1868.98 685.62,1884.41 686.21,1884.61 686.43,1884.66 686.56,1884.68 686.69,1884.66 686.83,1884.55 686.92,1884.25 686.93,1884.03 686.88,1883.67 667.14,1835.46 662.20,1836.76"/>
    <poly id="225016979" type="amenity" color="237,199,199" fill="1" layer="-1.00" shape="597.45,2268.79 594.38,2284.16 596.48,2284.58 599.55,2269.20 597.45,2268.79"/>
    <poly id="22819463" type="tourism" color="207,245,201" fill="1" layer="-2.00" shape="1635.07,2381.57 1687.24,2352.41 1682.04,2383.52 1682.30,2396.67 1684.04,2424.70 1655.27,2397.19 1635.07,2381.57"/>
    <poly id="22899302" type="tourism" color="207,245,201" fill="1" layer="-2.00" shape="1137.10,1799.10 889.57,1955.13 964.90,2077.04 1211.83,1919.82 1137.10,1799.10"/>
    <poly id="239977366" type="landuse" color="194,194,130" fill="1" layer="-3.00" shape="596.81,1337.26 604.37,1349.41 636.44,1329.63 649.00,1349.85 668.34,1337.92 632.97,1281.03 615.51,1291.81 630.76,1316.33 596.81,1337.26"/>
    <poly id="239988106" type="tourism" color="207,245,201" fill="1" layer="-2.00" shape="498.71,1326.14 474.00,1328.11 461.31,1208.81 465.84,1207.96 498.71,1326.14"/>
    <poly id="239988114" type="tourism" color="207,245,201" fill="1" layer="-2.00" shape="677.88,1817.19 688.00,1839.98 703.62,1814.99 683.77,1807.33 677.88,1817.19"/>
    <poly id="239988118" type="tourism" color="207,245,201" fill="1" layer="-2.00" shape="567.14,1484.65 582.91,1479.14 554.11,1439.10 567.14,1484.65"/>
    <poly id="239988120" type="tourism" color="207,245,201" fill="1" layer="-2.00" shape="859.67,2354.05 884.52,2299.95 898.49,2306.21 907.79,2325.72 898.87,2333.29 893.28,2350.54 897.38,2361.16 859.67,2354.05"/>
    <poly id="240453791" type="parking" color="184,184,179" fill="1" layer="-1.00" shape="1536.65,2690.29 1561.51,2676.59 1549.08,2654.22 1527.99,2665.85 1524.22,2667.93 1536.65,2690.29"/>
    <poly id="241833258" type="building" color="255,230,230" fill="1" layer="-1.00" shape="1757.53,1686.84 1750.25,1690.68 1750.43,1691.01 1758.36,1706.06 1758.65,1706.61 1759.90,1705.95 1761.05,1708.12 1766.13,1705.45 1764.98,1703.27 1765.93,1702.77 1757.53,1686.84"/>
    <poly id="241833261" type="building" color="255,230,230" fill="1" layer="-1.00" shape="1757.60,1737.92 1756.21,1738.65 1754.86,1736.09 1756.24,1735.37 1748.70,1721.05 1748.19,1720.07 1741.49,1723.61 1745.60,1731.40 1746.94,1733.96 1749.70,1739.18 1756.86,1752.77 1763.56,1749.24 1757.60,1737.92"/>
    <poly id="241833263" type="building" color="255,230,230" fill="1" layer="-1.00" shape="1769.77,1726.77 1768.89,1727.23 1767.37,1724.35 1767.75,1722.93 1766.94,1721.40 1764.01,1715.83 1756.97,1719.54 1760.71,1726.65 1762.49,1726.91 1764.01,1729.80 1762.73,1730.48 1770.65,1745.50 1777.69,1741.80 1769.77,1726.77"/>
    <poly id="241833264" type="building" color="255,230,230" fill="1" layer="-1.00" shape="1683.01,1615.15 1679.52,1617.01 1678.44,1614.97 1680.18,1614.04 1672.56,1599.73 1662.64,1605.02 1670.26,1619.33 1672.07,1618.36 1673.16,1620.40 1669.61,1622.29 1672.94,1628.55 1686.34,1621.41 1683.01,1615.15"/>
    <poly id="241833265" type="amenity" color="237,199,199" fill="1" layer="-1.00" shape="1739.48,1542.66 1738.19,1542.30 1737.37,1540.74 1738.23,1540.28 1732.65,1529.69 1725.72,1533.34 1732.98,1547.09 1735.46,1551.81 1737.60,1550.68 1739.17,1553.65 1742.27,1552.02 1740.70,1549.04 1742.38,1548.16 1739.48,1542.66"/>
    <poly id="241833265#1" type="building" color="255,230,230" fill="1" layer="-1.00" shape="1739.48,1542.66 1738.19,1542.30 1737.37,1540.74 1738.23,1540.28 1732.65,1529.69 1725.72,1533.34 1732.98,1547.09 1735.46,1551.81 1737.60,1550.68 1739.17,1553.65 1742.27,1552.02 1740.70,1549.04 1742.38,1548.16 1739.48,1542.66"/>
    <poly id="241833266" type="building" color="255,230,230" fill="1" layer="-1.00" shape="1761.92,1552.46 1756.61,1555.28 1759.04,1559.84 1757.54,1560.64 1758.46,1562.35 1760.87,1566.88 1762.23,1567.00 1764.25,1570.79 1763.24,1571.33 1766.59,1577.62 1773.40,1573.99 1770.07,1567.77 1766.48,1561.00 1761.92,1552.46"/>
    <poly id="241833268" type="building" color="255,230,230" fill="1" layer="-1.00" shape="1743.60,1582.85 1742.13,1582.19 1739.68,1577.60 1738.58,1578.19 1737.14,1575.50 1738.24,1574.90 1736.90,1572.39 1737.17,1570.78 1735.75,1568.12 1734.39,1565.56 1727.54,1569.21 1739.65,1591.97 1746.51,1588.32 1743.60,1582.85"/>
    <poly id="241833269" type="building" color="255,230,230" fill="1" layer="-1.00" shape="1739.41,1526.12 1732.65,1529.69 1738.23,1540.28 1739.14,1539.80 1739.96,1541.37 1739.48,1542.66 1742.38,1548.16 1743.95,1547.33 1745.52,1550.30 1748.85,1548.55 1747.28,1545.57 1749.15,1544.58 1748.89,1544.09 1739.41,1526.12"/>
    <poly id="241833270" type="building" color="255,230,230" fill="1" layer="-1.00" shape="1754.59,1535.30 1751.14,1537.11 1748.09,1531.34 1747.12,1531.86 1746.36,1530.38 1746.85,1529.09 1750.35,1527.24 1747.51,1521.85 1739.41,1526.12 1748.89,1544.09 1750.83,1543.07 1753.07,1547.31 1759.22,1544.07 1757.48,1540.77 1754.59,1535.30"/>
    <poly id="241833271" type="building" color="255,230,230" fill="1" layer="-1.00" shape="1764.01,1528.74 1761.63,1524.29 1763.53,1523.27 1764.13,1524.38 1769.74,1521.41 1769.14,1520.29 1771.00,1519.29 1773.38,1523.76 1780.28,1520.08 1781.65,1519.36 1774.20,1505.35 1749.36,1518.58 1756.81,1532.58 1762.79,1529.40 1764.01,1528.74"/>
    <poly id="241833272" type="building" color="255,230,230" fill="1" layer="-1.00" shape="1719.45,1570.03 1712.82,1573.56 1699.49,1580.66 1700.98,1583.45 1703.70,1588.55 1712.38,1604.84 1715.21,1604.30 1717.98,1603.52 1720.68,1602.50 1723.27,1601.25 1725.75,1599.79 1728.10,1598.13 1730.30,1596.27 1732.34,1594.23 1730.09,1590.00 1723.94,1578.47 1720.89,1572.75 1719.45,1570.03"/>
    <poly id="241833272#1" type="tourism" color="207,245,201" fill="1" layer="-2.00" shape="1719.45,1570.03 1712.82,1573.56 1699.49,1580.66 1700.98,1583.45 1703.70,1588.55 1712.38,1604.84 1715.21,1604.30 1717.98,1603.52 1720.68,1602.50 1723.27,1601.25 1725.75,1599.79 1728.10,1598.13 1730.30,1596.27 1732.34,1594.23 1730.09,1590.00 1723.94,1578.47 1720.89,1572.75 1719.45,1570.03"/>
    <poly id="241833273" type="building" color="255,230,230" fill="1" layer="-1.00" shape="1749.34,1577.11 1748.64,1577.48 1747.37,1575.09 1747.63,1573.90 1745.66,1570.20 1742.61,1564.47 1735.75,1568.12 1737.17,1570.78 1740.84,1577.68 1742.02,1578.26 1743.16,1580.41 1742.92,1581.58 1743.60,1582.85 1746.51,1588.32 1753.37,1584.67 1749.34,1577.11"/>
    <poly id="241833275" type="building" color="255,230,230" fill="1" layer="-1.00" shape="1700.93,1567.89 1699.39,1566.90 1698.06,1564.38 1697.06,1564.91 1695.39,1561.75 1696.39,1561.22 1694.95,1558.49 1695.10,1556.82 1692.08,1551.09 1685.43,1554.59 1688.45,1560.32 1689.87,1561.18 1694.30,1569.58 1694.37,1571.34 1697.31,1576.92 1703.87,1573.45 1703.49,1572.73 1700.93,1567.89"/>
    <poly id="241833276" type="building" color="255,230,230" fill="1" layer="-1.00" shape="1762.52,1569.99 1759.03,1571.85 1754.97,1564.21 1758.46,1562.35 1757.54,1560.64 1754.93,1555.73 1741.71,1562.78 1742.61,1564.47 1745.66,1570.20 1749.85,1567.96 1751.70,1571.45 1750.94,1571.85 1752.77,1575.29 1749.34,1577.11 1753.37,1584.67 1766.59,1577.62 1763.24,1571.33 1762.52,1569.99"/>
    <poly id="241833277" type="building" color="255,230,230" fill="1" layer="-1.00" shape="1663.07,1626.01 1660.67,1627.30 1659.98,1626.81 1659.26,1625.47 1660.04,1625.06 1652.45,1610.81 1647.62,1613.37 1654.53,1626.34 1650.97,1628.24 1651.66,1629.53 1652.74,1629.68 1653.54,1629.25 1654.17,1630.44 1653.90,1631.39 1651.13,1632.87 1654.16,1638.55 1666.30,1632.08 1663.07,1626.01"/>
    <poly id="241833278" type="building" color="255,230,230" fill="1" layer="-1.00" shape="1749.70,1739.18 1748.58,1739.77 1746.14,1735.15 1746.94,1733.96 1745.60,1731.40 1744.51,1730.82 1742.65,1727.27 1736.33,1730.60 1738.33,1734.38 1738.44,1735.24 1739.76,1737.74 1741.02,1737.84 1743.46,1742.47 1742.78,1742.83 1746.82,1750.49 1749.94,1756.42 1756.86,1752.77 1749.70,1739.18"/>
    <poly id="241833280" type="building" color="255,230,230" fill="1" layer="-1.00" shape="1643.11,1594.04 1639.34,1596.04 1638.02,1593.55 1632.74,1596.37 1629.52,1590.31 1625.12,1592.65 1626.11,1594.60 1614.39,1600.94 1618.14,1607.82 1622.07,1605.73 1623.32,1610.25 1625.40,1613.74 1629.45,1618.67 1626.28,1622.43 1628.66,1627.21 1649.17,1616.29 1647.62,1613.37 1645.86,1610.06 1650.36,1607.67 1643.11,1594.04"/>
    <poly id="241833281" type="building" color="255,230,230" fill="1" layer="-1.00" shape="1781.51,1645.56 1780.29,1646.22 1779.14,1644.08 1780.36,1643.42 1778.22,1639.43 1776.90,1639.25 1775.84,1637.28 1776.26,1635.78 1773.65,1630.93 1767.20,1634.40 1769.81,1639.24 1771.31,1640.22 1772.16,1641.79 1772.17,1643.66 1773.92,1646.89 1774.83,1646.39 1775.98,1648.53 1775.07,1649.03 1778.45,1655.32 1784.89,1651.85 1781.51,1645.56"/>
    <poly id="241833282" type="building" color="255,230,230" fill="1" layer="-1.00" shape="1775.07,1649.03 1774.17,1649.50 1772.76,1646.87 1771.91,1647.33 1770.31,1644.34 1771.16,1643.88 1769.67,1641.11 1769.81,1639.24 1767.20,1634.40 1760.65,1637.92 1763.25,1642.76 1764.65,1643.79 1766.15,1646.57 1767.10,1646.05 1768.71,1649.05 1767.75,1649.56 1769.17,1652.19 1769.15,1653.74 1771.90,1658.84 1778.45,1655.32 1775.07,1649.03"/>
    <poly id="241833283" type="building" color="255,230,230" fill="1" layer="-1.00" shape="1769.15,1653.74 1767.59,1653.04 1766.17,1650.40 1765.01,1651.04 1763.41,1648.04 1764.57,1647.42 1763.08,1644.64 1763.25,1642.76 1760.65,1637.92 1754.01,1641.48 1756.62,1646.33 1757.96,1647.39 1759.44,1650.17 1760.68,1649.51 1762.29,1652.51 1761.06,1653.18 1762.47,1655.79 1762.51,1657.30 1765.26,1662.41 1771.90,1658.84 1769.15,1653.74"/>
    <poly id="241833288" type="building" color="255,230,230" fill="1" layer="-1.00" shape="1710.40,1601.12 1708.74,1600.42 1706.22,1595.67 1705.10,1596.27 1703.56,1593.37 1704.67,1592.78 1703.41,1590.40 1703.70,1588.55 1700.98,1583.45 1694.27,1587.03 1696.99,1592.12 1698.30,1593.12 1699.62,1595.59 1700.81,1594.95 1702.30,1597.76 1701.10,1598.40 1703.63,1603.13 1703.68,1604.70 1706.78,1610.52 1713.50,1606.94 1712.38,1604.84 1710.40,1601.12"/>
    <poly id="241833289" type="building" color="255,230,230" fill="1" layer="-1.00" shape="1746.82,1750.49 1745.21,1749.83 1742.44,1744.57 1741.49,1745.07 1739.81,1741.88 1740.76,1741.37 1738.03,1736.20 1738.33,1734.38 1736.33,1730.60 1735.40,1728.83 1727.90,1732.78 1730.83,1738.34 1732.64,1739.05 1735.36,1744.22 1736.08,1743.84 1737.76,1747.03 1737.04,1747.40 1739.82,1752.67 1739.32,1754.44 1742.44,1760.38 1749.94,1756.42 1746.82,1750.49"/>
    <poly id="241833292" type="building" color="255,230,230" fill="1" layer="-1.00" shape="1689.49,1578.25 1682.88,1581.77 1686.08,1587.76 1692.68,1584.25 1689.49,1578.25"/>
    <poly id="241833293" type="building" color="255,230,230" fill="1" layer="-1.00" shape="1770.07,1567.77 1773.40,1573.99 1783.60,1568.56 1780.29,1562.33 1770.07,1567.77"/>
    <poly id="241833294" type="building" color="255,230,230" fill="1" layer="-1.00" shape="1726.68,1730.46 1720.08,1733.94 1735.84,1763.85 1742.44,1760.38 1739.32,1754.44 1730.83,1738.34 1726.68,1730.46"/>
    <poly id="241833295" type="building" color="255,230,230" fill="1" layer="-1.00" shape="1678.69,1558.15 1671.67,1561.85 1679.55,1576.82 1686.58,1573.12 1678.69,1558.15"/>
    <poly id="241833296" type="building" color="255,230,230" fill="1" layer="-1.00" shape="1725.72,1533.34 1719.00,1536.89 1726.25,1550.65 1732.98,1547.09 1725.72,1533.34"/>
    <poly id="241833297" type="building" color="255,230,230" fill="1" layer="-1.00" shape="1750.43,1691.01 1743.48,1694.67 1751.41,1709.73 1758.36,1706.06 1750.43,1691.01"/>
    <poly id="241833300" type="building" color="255,230,230" fill="1" layer="-1.00" shape="1715.45,1709.74 1708.48,1713.41 1716.52,1728.67 1723.49,1725.00 1715.45,1709.74"/>
    <poly id="241833301" type="building" color="255,230,230" fill="1" layer="-1.00" shape="1682.00,1556.40 1678.69,1558.15 1686.58,1573.12 1689.95,1571.34 1682.00,1556.40"/>
    <poly id="241833301#1" type="shop" color="237,199,255" fill="1" layer="-1.00" shape="1682.00,1556.40 1678.69,1558.15 1686.58,1573.12 1689.95,1571.34 1682.00,1556.40"/>
    <poly id="241833302" type="building" color="255,230,230" fill="1" layer="-1.00" shape="1705.71,1543.89 1698.52,1547.69 1705.72,1561.35 1712.91,1557.56 1705.71,1543.89"/>
    <poly id="241833303" type="building" color="255,230,230" fill="1" layer="-1.00" shape="1743.48,1694.67 1736.61,1698.29 1744.54,1713.35 1751.41,1709.73 1743.48,1694.67"/>
    <poly id="241833304" type="building" color="255,230,230" fill="1" layer="-1.00" shape="1730.13,1702.60 1723.04,1706.35 1730.83,1721.13 1737.93,1717.39 1730.13,1702.60"/>
    <poly id="241833305" type="building" color="255,230,230" fill="1" layer="-1.00" shape="1692.68,1584.25 1699.15,1580.80 1695.96,1574.80 1689.49,1578.25 1692.68,1584.25"/>
    <poly id="241833307" type="building" color="255,230,230" fill="1" layer="-1.00" shape="1795.47,1545.56 1791.97,1538.99 1777.89,1546.49 1766.49,1552.55 1769.99,1559.13 1794.21,1546.23 1795.47,1545.56"/>
    <poly id="241833308" type="building" color="255,230,230" fill="1" layer="-1.00" shape="1651.65,1572.40 1644.75,1576.04 1645.03,1576.58 1652.35,1590.46 1659.25,1586.82 1651.65,1572.40"/>
    <poly id="241833309" type="building" color="255,230,230" fill="1" layer="-1.00" shape="1755.79,1717.32 1748.70,1721.05 1756.24,1735.37 1757.60,1737.92 1763.56,1749.24 1770.65,1745.50 1762.73,1730.48 1760.71,1726.65 1756.97,1719.54 1755.79,1717.32"/>
    <poly id="241833313" type="building" color="255,230,230" fill="1" layer="-1.00" shape="1658.34,1568.88 1651.65,1572.40 1659.25,1586.82 1660.38,1588.95 1667.06,1585.43 1658.34,1568.88"/>
    <poly id="241833314" type="building" color="255,230,230" fill="1" layer="-1.00" shape="1689.95,1571.34 1693.33,1569.55 1688.45,1560.32 1685.43,1554.59 1682.00,1556.40 1689.95,1571.34"/>
    <poly id="241833315" type="amenity" color="237,199,199" fill="1" layer="-1.00" shape="1722.79,1705.87 1715.45,1709.74 1723.49,1725.00 1730.83,1721.13 1723.04,1706.35 1722.79,1705.87"/>
    <poly id="241833315#1" type="building" color="255,230,230" fill="1" layer="-1.00" shape="1722.79,1705.87 1715.45,1709.74 1723.49,1725.00 1730.83,1721.13 1723.04,1706.35 1722.79,1705.87"/>
    <poly id="241833316" type="building" color="255,230,230" fill="1" layer="-1.00" shape="1708.48,1713.41 1701.63,1717.03 1708.01,1729.13 1709.67,1732.29 1716.52,1728.67 1708.48,1713.41"/>
    <poly id="241833319" type="building" color="255,230,230" fill="1" layer="-1.00" shape="1698.52,1547.69 1692.08,1551.09 1703.49,1572.73 1709.94,1569.33 1705.72,1561.35 1698.52,1547.69"/>
    <poly id="241833320" type="building" color="255,230,230" fill="1" layer="-1.00" shape="1686.08,1587.76 1672.33,1595.08 1683.01,1615.15 1686.34,1621.41 1700.10,1614.08 1691.52,1597.98 1686.08,1587.76"/>
    <poly id="241833321" type="building" color="255,230,230" fill="1" layer="-1.00" shape="1720.08,1733.94 1712.63,1737.87 1717.53,1747.18 1728.39,1767.79 1735.84,1763.85 1720.08,1733.94"/>
    <poly id="241833325" type="building" color="255,230,230" fill="1" layer="-1.00" shape="1708.01,1729.13 1701.63,1717.03 1681.14,1727.83 1687.53,1739.94 1688.59,1739.37 1708.01,1729.13"/>
    <poly id="241833326" type="building" color="255,230,230" fill="1" layer="-1.00" shape="1673.61,1649.46 1647.31,1663.67 1673.27,1711.70 1699.56,1697.49 1686.20,1672.75 1673.61,1649.46"/>
    <poly id="241833327" type="building" color="255,230,230" fill="1" layer="-1.00" shape="1717.53,1747.18 1708.90,1751.72 1698.09,1757.41 1708.95,1778.02 1728.39,1767.79 1717.53,1747.18"/>
    <poly id="241833329" type="building" color="255,230,230" fill="1" layer="-1.00" shape="1756.84,1646.74 1745.04,1653.08 1753.56,1668.93 1760.36,1665.27 1759.70,1664.03 1764.69,1661.36 1756.84,1646.74"/>
    <poly id="241833330" type="building" color="255,230,230" fill="1" layer="-1.00" shape="1784.02,1589.65 1732.14,1617.52 1740.29,1632.69 1792.16,1604.82 1791.06,1602.74 1787.49,1596.12 1784.02,1589.65"/>
    <poly id="241833331" type="building" color="255,230,230" fill="1" layer="-1.00" shape="1715.38,1562.39 1708.27,1566.17 1710.03,1569.50 1710.52,1569.23 1712.82,1573.56 1719.45,1570.03 1715.38,1562.39"/>
    <poly id="241833332" type="building" color="255,230,230" fill="1" layer="-1.00" shape="1773.94,1717.71 1766.94,1721.40 1767.75,1722.93 1769.77,1726.77 1777.69,1741.80 1784.69,1738.10 1773.94,1717.71"/>
    <poly id="241833334" type="building" color="255,230,230" fill="1" layer="-1.00" shape="1745.04,1653.08 1733.60,1659.23 1741.52,1673.98 1746.36,1671.37 1746.96,1672.48 1753.56,1668.93 1745.04,1653.08"/>
    <poly id="241833336" type="building" color="255,230,230" fill="1" layer="-1.00" shape="1790.71,1539.67 1787.28,1533.22 1766.33,1544.38 1768.34,1548.15 1776.46,1543.82 1777.89,1546.49 1790.71,1539.67"/>
    <poly id="241833337" type="building" color="255,230,230" fill="1" layer="-1.00" shape="1783.82,1526.74 1771.00,1533.57 1771.95,1535.34 1763.82,1539.67 1766.33,1544.38 1787.28,1533.22 1783.82,1526.74"/>
    <poly id="241833338" type="building" color="255,230,230" fill="1" layer="-1.00" shape="1656.73,1598.78 1657.18,1598.55 1658.99,1601.98 1665.58,1598.50 1661.50,1590.75 1654.46,1594.46 1656.73,1598.78"/>
    <poly id="241833339" type="building" color="255,230,230" fill="1" layer="-1.00" shape="1658.94,1602.26 1652.30,1605.81 1663.07,1626.01 1666.30,1632.08 1672.94,1628.55 1669.61,1622.29 1658.94,1602.26"/>
    <poly id="241833340" type="building" color="255,230,230" fill="1" layer="-1.00" shape="1797.81,1553.00 1794.21,1546.23 1769.99,1559.13 1766.48,1561.00 1770.07,1567.77 1780.29,1562.33 1797.81,1553.00"/>
    <poly id="241833341" type="building" color="255,230,230" fill="1" layer="-1.00" shape="1736.61,1698.29 1729.76,1701.90 1730.13,1702.60 1737.93,1717.39 1739.16,1719.73 1746.00,1716.12 1744.54,1713.35 1736.61,1698.29"/>
    <poly id="241833342" type="building" color="255,230,230" fill="1" layer="-1.00" shape="1717.53,1747.18 1712.63,1737.87 1709.67,1732.29 1708.01,1729.13 1688.59,1739.37 1698.09,1757.41 1708.90,1751.72 1717.53,1747.18"/>
    <poly id="241833343" type="building" color="255,230,230" fill="1" layer="-1.00" shape="1783.82,1526.74 1780.28,1520.08 1762.79,1529.40 1763.43,1530.59 1754.59,1535.30 1757.48,1540.77 1771.00,1533.57 1783.82,1526.74"/>
    <poly id="241833344" type="amenity" color="237,199,199" fill="1" layer="-1.00" shape="1696.94,1659.82 1713.01,1689.74 1732.91,1679.05 1722.15,1659.01 1721.67,1659.26 1716.37,1649.39 1714.34,1650.47 1696.94,1659.82"/>
    <poly id="241833344#1" type="building" color="255,230,230" fill="1" layer="-1.00" shape="1696.94,1659.82 1713.01,1689.74 1732.91,1679.05 1722.15,1659.01 1721.67,1659.26 1716.37,1649.39 1714.34,1650.47 1696.94,1659.82"/>
    <poly id="241833347" type="building" color="255,230,230" fill="1" layer="-1.00" shape="1771.45,1679.51 1764.30,1683.27 1772.71,1699.21 1773.96,1698.54 1775.11,1700.71 1779.90,1698.19 1778.76,1696.01 1779.84,1695.44 1771.45,1679.51"/>
    <poly id="241833349" type="building" color="255,230,230" fill="1" layer="-1.00" shape="1727.54,1569.21 1720.89,1572.75 1723.94,1578.47 1725.43,1578.95 1730.51,1588.49 1730.09,1590.00 1732.34,1594.23 1733.01,1595.50 1739.65,1591.97 1727.54,1569.21"/>
    <poly id="241833350" type="building" color="255,230,230" fill="1" layer="-1.00" shape="1764.30,1683.27 1757.53,1686.84 1765.93,1702.77 1767.14,1702.13 1768.29,1704.31 1772.99,1701.83 1771.85,1699.65 1772.71,1699.21 1764.30,1683.27"/>
    <poly id="241833352" type="building" color="255,230,230" fill="1" layer="-1.00" shape="1672.69,1800.23 1671.97,1796.99 1682.94,1794.57 1654.98,1743.31 1632.55,1755.03 1640.73,1803.30 1648.70,1801.54 1649.54,1805.34 1672.69,1800.23"/>
    <poly id="241833353" type="building" color="255,230,230" fill="1" layer="-1.00" shape="1665.01,1565.36 1658.34,1568.88 1667.06,1585.43 1668.63,1588.41 1670.17,1587.61 1671.07,1589.29 1674.88,1587.28 1673.99,1585.58 1675.31,1584.90 1665.01,1565.36"/>
    <poly id="241833354" type="building" color="255,230,230" fill="1" layer="-1.00" shape="1671.67,1561.85 1665.01,1565.36 1675.31,1584.90 1677.02,1583.99 1677.91,1585.68 1681.53,1583.77 1680.64,1582.07 1681.97,1581.38 1679.55,1576.82 1671.67,1561.85"/>
    <poly id="241833355" type="building" color="255,230,230" fill="1" layer="-1.00" shape="1709.77,1641.97 1714.25,1639.56 1722.08,1654.15 1745.16,1641.75 1740.29,1632.69 1732.14,1617.52 1687.19,1641.66 1696.94,1659.82 1714.34,1650.47 1709.77,1641.97"/>
    <poly id="241833356" type="building" color="255,230,230" fill="1" layer="-1.00" shape="1719.00,1536.89 1712.25,1540.45 1721.99,1558.91 1723.96,1557.87 1725.53,1560.84 1729.18,1558.92 1727.61,1555.95 1728.74,1555.35 1726.25,1550.65 1719.00,1536.89"/>
    <poly id="241833358" type="building" color="255,230,230" fill="1" layer="-1.00" shape="1712.25,1540.45 1705.71,1543.89 1712.91,1557.56 1715.45,1562.36 1717.21,1561.42 1718.23,1563.36 1721.93,1561.41 1720.91,1559.48 1721.99,1558.91 1712.25,1540.45"/>
    <poly id="241833359" type="building" color="255,230,230" fill="1" layer="-1.00" shape="1698.20,1594.42 1696.00,1595.60 1694.65,1593.06 1691.82,1594.57 1693.16,1597.11 1691.52,1597.98 1700.10,1614.08 1706.78,1610.52 1703.68,1604.70 1698.20,1594.42"/>
    <poly id="241833360" type="building" color="255,230,230" fill="1" layer="-1.00" shape="1645.03,1576.58 1637.24,1580.69 1640.63,1587.10 1644.24,1585.20 1649.29,1594.77 1645.68,1596.68 1648.95,1602.88 1656.73,1598.78 1654.46,1594.46 1652.35,1590.46 1645.03,1576.58"/>
    <poly id="241844910" type="amenity" color="237,199,199" fill="1" layer="-1.00" shape="1767.59,1772.80 1758.66,1777.66 1762.09,1783.96 1769.92,1798.33 1773.07,1804.13 1773.68,1805.24 1782.61,1800.40 1780.86,1797.19 1777.32,1790.69 1775.81,1787.90 1767.59,1772.80"/>
    <poly id="241844910#1" type="building" color="255,230,230" fill="1" layer="-1.00" shape="1767.59,1772.80 1758.66,1777.66 1762.09,1783.96 1769.92,1798.33 1773.07,1804.13 1773.68,1805.24 1782.61,1800.40 1780.86,1797.19 1777.32,1790.69 1775.81,1787.90 1767.59,1772.80"/>
    <poly id="241844911" type="building" color="255,230,230" fill="1" layer="-1.00" shape="1745.24,1782.15 1738.92,1785.59 1743.18,1793.42 1749.36,1804.91 1750.30,1806.81 1750.98,1806.80 1751.09,1805.17 1758.10,1805.78 1756.11,1802.10 1746.36,1784.20 1745.24,1782.15"/>
    <poly id="241844923" type="building" color="255,230,230" fill="1" layer="-1.00" shape="1785.61,1789.19 1784.57,1789.76 1782.98,1786.84 1783.71,1785.72 1782.93,1784.28 1774.61,1768.98 1767.59,1772.80 1775.81,1787.90 1776.47,1787.55 1777.63,1789.67 1777.32,1790.69 1780.86,1797.19 1787.88,1793.37 1785.61,1789.19"/>
    <poly id="241844930" type="building" color="255,230,230" fill="1" layer="-1.00" shape="1760.93,1796.55 1759.45,1797.35 1758.08,1794.83 1759.55,1794.02 1755.91,1787.33 1752.47,1781.02 1746.36,1784.20 1756.11,1802.10 1756.78,1801.89 1758.59,1805.23 1761.49,1803.65 1762.42,1805.36 1765.89,1805.67 1762.44,1799.33 1760.93,1796.55"/>
    <poly id="241844933" type="building" color="255,230,230" fill="1" layer="-1.00" shape="1776.39,1817.20 1776.82,1812.20 1757.59,1810.54 1758.10,1805.78 1751.09,1805.17 1750.98,1806.80 1750.30,1806.81 1749.60,1806.89 1749.55,1807.40 1748.44,1805.36 1729.11,1815.89 1732.58,1822.28 1736.15,1820.33 1735.87,1823.62 1782.05,1827.59 1777.93,1820.03 1776.39,1817.20"/>
    <poly id="241844938" type="building" color="255,230,230" fill="1" layer="-1.00" shape="1789.91,1883.75 1791.53,1882.89 1792.20,1881.07 1785.45,1868.40 1790.61,1865.64 1788.49,1861.66 1789.98,1860.86 1790.51,1855.78 1794.64,1856.11 1795.24,1848.51 1782.77,1847.53 1784.87,1851.39 1772.47,1857.89 1773.26,1859.38 1762.66,1865.02 1764.47,1868.41 1763.30,1869.03 1765.00,1872.21 1763.71,1872.90 1784.01,1911.02 1799.92,1902.55 1794.71,1892.76 1789.91,1883.75"/>
    <poly id="241844939" type="building" color="255,230,230" fill="1" layer="-1.00" shape="1769.92,1798.33 1769.09,1798.14 1766.41,1793.23 1765.66,1793.64 1763.87,1790.35 1764.63,1789.94 1762.25,1785.58 1762.09,1783.96 1758.66,1777.66 1752.47,1781.02 1755.91,1787.33 1757.38,1788.24 1759.63,1792.36 1760.69,1791.78 1762.62,1795.35 1761.57,1795.92 1762.84,1798.26 1762.44,1799.33 1765.89,1805.67 1769.00,1803.97 1769.99,1805.80 1772.19,1805.80 1773.07,1804.13 1769.92,1798.33"/>
    <poly id="241844946" type="building" color="255,230,230" fill="1" layer="-1.00" shape="1738.92,1785.59 1718.69,1796.75 1722.95,1804.58 1743.18,1793.42 1738.92,1785.59"/>
    <poly id="241844982" type="building" color="255,230,230" fill="1" layer="-1.00" shape="1749.36,1804.91 1743.18,1793.42 1722.95,1804.58 1729.11,1815.89 1748.44,1805.36 1749.36,1804.91"/>
    <poly id="244977216" type="leisure" color="207,245,201" fill="1" layer="-2.00" shape="651.15,1714.32 674.46,1700.11 665.03,1684.56 688.97,1668.40 669.85,1639.49 632.76,1664.33 651.15,1714.32"/>
    <poly id="244977217" type="leisure" color="207,245,201" fill="1" layer="-2.00" shape="576.66,1682.50 577.21,1667.63 601.09,1665.07 576.58,1683.96 576.66,1682.50"/>
    <poly id="244977966" type="leisure" color="207,245,201" fill="1" layer="-2.00" shape="774.41,2009.53 780.76,2005.35 788.96,2000.84 766.44,1994.39 770.70,2002.54 774.41,2009.53"/>
    <poly id="244978444" type="tourism" color="207,245,201" fill="1" layer="-2.00" shape="636.50,1824.64 649.61,1829.93 655.25,1812.82 646.28,1813.78 642.24,1812.09 636.50,1824.64"/>