<?xml version="1.0" encoding="UTF-8"?>

<!-- generated on Fri May 23 15:29:11 2014 by SUMO duarouter Version 0.17.1
<?xml version="1.0" encoding="UTF-8"?>

<configuration xmlns:xsi="http://www.w3.org/2001/XMLSchema-instance" xsi:noNamespaceSchemaLocation="http://sumo.sf.net/xsd/duarouterConfiguration.xsd">

    <input>
        <net-file value="/home/pierpaolo/Scrivania/scriptMirco/scriptMirco/facilitatore/v0.4/v0.4/net/Manhattan/Manhattan.net.xml"/>
        <trip-files value="/home/pierpaolo/Scrivania/scriptMirco/scriptMirco/facilitatore/v0.4/v0.4/rou/Manhattan/Manhattan.trips.xml"/>
    </input>

    <output>
        <output-file value="/home/pierpaolo/Scrivania/scriptMirco/scriptMirco/facilitatore/v0.4/v0.4/rou/Manhattan/Manhattan.rou.xml"/>
    </output>

    <processing>
        <ignore-errors value="true"/>
    </processing>

    <time>
        <begin value="0.0"/>
        <end value="300.0"/>
    </time>

</configuration>
-->

<routes xmlns:xsi="http://www.w3.org/2001/XMLSchema-instance" xsi:noNamespaceSchemaLocation="http://sumo.sf.net/xsd/routes_file.xsd">
    <vehicle id="0" depart="0.00">
        <route edges="5671754#0 5671754#1 157012398#1 157012387#0 157012387#1 157012387#2 157012387#3 181546837#1 181546837#2 181546837#3 181546837#4 181546837#5 181546837#6 181546837#7 181375404#0 181375404#1 181375404#2 181375404#3"/>
    </vehicle>
    <vehicle id="1" depart="0.20">
        <route edges="22927373#5 -195743555#4 -195743555#3 5669953#0 5669953#1 5669953#2 5669953#3 5669953#4 5669953#5 5669953#6 5670044#8 5670044#9 5670044#10 5670044#11 5670044#12 5670044#13 157012386#0 157012386#1 157012387#3 181546837#1 181546837#2 181546837#3 181546837#4 5670193#1 5673316#10 46332295#3"/>
    </vehicle>
    <vehicle id="2" depart="0.40">
        <route edges="118400726#6 46582968#5 46582968#6 276670360#1 5671774#0 5671774#1 5671774#2 5671774#3 5671774#4 5671774#5 5671774#6 5671774#8 5671774#9 5671774#10 5671774#11 5670551#4"/>
    </vehicle>
    <vehicle id="3" depart="0.60">
        <route edges="-5671774#3 -5671774#2 -5671774#1 -5671774#0 -276670360#1 -276670360#0 5672198#3 5672198#1 5672198#0 5672203 5670594#0 5670594#1 5670594#2 5670594#3 5670594#4 5673047#5 5673047#4 5670092#1 181375404#4 181375404#5"/>
    </vehicle>
    <vehicle id="4" depart="0.80">
        <route edges="5673210#3 5672214#0 46139037#2 46139037#4 46139037#5 46139037#6 46139037#7 46139037#8 46139037#9 46139037#10 46139037#11 46139037#12"/>
    </vehicle>
    <vehicle id="6" depart="1.20">
        <route edges="196117091#2 -195743555#2 -195743555#1 -195743555#0 195743556#0 195743556#1 127693102#2 127693102#3 127693102#4 127693102#5 127693102#6 -5672434 5670924#0 5670924#1 5670924#2 195743164#1 34080149#0 34080149#1 -68668537#1"/>
    </vehicle>
    <vehicle id="7" depart="1.40">
        <route edges="5671774#8 5670009#2 5670009#3 22902608#0 22902608#1 22902608#2 22902608#3 22902608#4 5669742#0 5669742#1 5669742#2 5669742#3 5669742#4 5669742#5 5669742#6 5669742#7 5669742#8 5669742#9 5669742#10 5669742#11 5669742#12 5669742#13 5669742#15 5669742#16 194923786#7 194923786#8 194923786#9 194923786#10 5670092#4 5670092#5 5670092#6 5670092#7 5670092#8 5670092#9 5670092#10"/>
    </vehicle>
    <vehicle id="8" depart="1.60">
        <route edges="-5671774#4 5672604#5 5672176#2 5672176#3 5672176#4 -195743164#1 -5670924#2 -5670924#1 -5670924#0 195743341#0 195743341#1 195743341#2 195743341#3 195743341#4 5668989 24264114#0 24264114#1 24264114#2 24264114#3 5672159#0 5672159#1 5672159#2 5669953#6 46610727#0 5669993#0"/>
    </vehicle>
    <vehicle id="10" depart="2.00">
        <route edges="157012387#5 5672654 194923810#3 181546837#0 181546837#1 181546837#2 181546837#3 181546837#4 181546837#5 181546837#6 181546837#7 181375404#0 181375404#1 46139037#4 46139037#5 46139037#6 46139037#7 46139037#8 46139037#9 46139037#10 46139037#11 5672178#1 5672176#0 5669962#3 -5671774#2"/>
    </vehicle>
    <vehicle id="12" depart="2.40">
        <route edges="5672184#1 165781913#1 46582971#1 46582971#0 5672203 5670594#0 5670594#1 5670594#2 5670594#3 5670594#4 5673047#5 5673047#4 5670092#1 5670092#2 5670092#3 5670092#4 5670092#5"/>
    </vehicle>
    <vehicle id="13" depart="2.60">
        <route edges="-5671774#11 -5671774#10 -5671774#9 -5671774#8 -195743164#3 -195743164#2 -195743164#1 5669742#0 5669742#1 5669742#2 5672607#0"/>
    </vehicle>
    <vehicle id="14" depart="2.80">
        <route edges="5670009#0 5670009#1 -5671774#8 -195743164#3 -195743164#2 -195743164#1 -5670924#2 -5670924#1 -5670924#0 5672434 196117073 196117073-AddedOffRampEdge 196117091#0 196117091#1 196117091#2 195743555#3 195743555#4 22927373#6"/>
    </vehicle>
    <vehicle id="15" depart="3.00">
        <route edges="125528659#1 125528659#2 125528659#3 125528659#4 165777951#0 165781913#0 165781913#1 165781913#2 165781912 276670360#0 276670360#1 5671774#0 5671774#1 5671774#2 5671774#3 5671774#4 5671429#4 118400726#2 5672604#4"/>
    </vehicle>
    <vehicle id="16" depart="3.20">
        <route edges="5671698#2 5671698#3 5671698#4 5671698#5 5671698#6 5672713 5670731#1 5670731#2 5670924#1 5670924#2 195743164#1 34080149#0 34080149#1 -68668537#1 -68668537#0 -5670522 22897633#4 22897632"/>
    </vehicle>
    <vehicle id="17" depart="3.40">
        <route edges="5670651#0-AddedOffRampEdge 5671799#0 5671799#1 5670171#0 5670171#1 5670171#2 5670170 24264114#4 46608946#0 216959250#1 5669953#4"/>
    </vehicle>
    <vehicle id="20" depart="4.00">
        <route edges="5673309#0 5673309#1 46139045#3 46139045#4 46139045#5 46139045#6 46139045#7 5670651#0 5670651#0-AddedOffRampEdge 5670651#1 68674966#0 68674966#1 50584835#0 50584835#1 5670172#0 5670172#1"/>
    </vehicle>
    <vehicle id="21" depart="4.20">
        <route edges="165777951#3 165777951#2 165777951#1 165777951#0 165781913#0 165781913#1 46582969#0 46582969#1 5672178#0 5672178#1 5672176#0 5672176#1 5672176#2 5672176#3 5672176#4 -195743164#1 -5670924#2 -5670924#1 -5670924#0 5672434 196117073 196117073-AddedOffRampEdge 196117091#0 196117091#1 196117091#2 5671668#2 5671668#3 5671668#4 5670044#2 5673052#1"/>
    </vehicle>
    <vehicle id="23" depart="4.60">
        <route edges="5671774#9 5671774#10 22897633#2 22897633#3 5670522 68668537#0 68668537#1 22902608#0 22902608#1 22902608#2 22902608#3 22902608#4 5669742#0 5669742#1 5669742#2 5669742#3 5669742#4 5669742#5 5669742#6 5670780#0"/>
    </vehicle>
    <vehicle id="25" depart="5.00">
        <route edges="5670044#0 5670941#0 5670941#1 5670941#1-AddedOffRampEdge 5670941#2 -195743555#3 -195743555#2 -195743555#1 -195743555#0 -5670087#1 -5670087#0 5670651#0 5670651#0-AddedOffRampEdge 5670651#1 5673089#0 5673089#1 5673089#2 5673089#3 68668558#0 46139037#11 5672178#1 5672176#0 5669962#3 -5671774#2"/>
    </vehicle>
    <vehicle id="26" depart="5.20">
        <route edges="5670488#0 5670488#1 5670488#2 181546837#3 181546837#4 181546837#5 181546837#6 181546837#7 5669742#15 5669742#16 5669742#17 5669742#18"/>
    </vehicle>
    <vehicle id="27" depart="5.40">
        <route edges="-196117073 -5672434 5670924#0 5670924#1 5670924#2 5669742#0 5669742#1 5669742#2 5669742#3 5669742#4 5669742#5 5669742#6 5669742#7 5669742#8 5669742#9 5669742#10 5669742#11 5669742#12 5669742#13 5669742#15 5673316#7 5671711#2"/>
    </vehicle>
    <vehicle id="28" depart="5.60">
        <route edges="5672434 196117073 196117073-AddedOffRampEdge 196117091#0 196117091#1 196117091#2 5669953#0 5669953#1 5669953#2 5669953#3 5669953#4 5669953#5 5669953#6 5670044#8 5670044#9 5670044#10 5670044#11 5670044#12 5670044#13 157012386#0 157012386#1 157012387#3 157012387#5 157012387#6 5670792#0 5670792#1"/>
    </vehicle>
    <vehicle id="30" depart="6.00">
        <route edges="5669993#0 239988110#6 239988110#7 46610725#1 5670044#7 46610724 25199402#2 25199402#3 25199402#4 46139045#5 46139045#6 46139045#7 5670651#0 5670651#0-AddedOffRampEdge 5670651#1 5673089#0 5673089#1 5673089#2 5673089#3 5669742#6 5669742#7 5669742#8 5669742#9 5669742#10 5669742#11"/>
    </vehicle>
    <vehicle id="32" depart="6.40">
        <route edges="167923357 5671459 68668541#3"/>
    </vehicle>
    <vehicle id="34" depart="6.80">
        <route edges="5671659#0 5671659#1 5671659#2 5671659#3 5671659#4 5671659#5 5672178#1 5672176#0 5672176#1 5672176#2 5672176#3 5672176#4 -195743164#1 -5670924#2 -5670924#1 -5670924#0 5672434 196117090#0 196117090#1 196117090#2 196117090#3 196117090#4 196117090#5 196117090#6 196117090#7 196117090#8 196117090#9 196117090#10 196117090#11 196117090#12 196117090#13 196117090#14 196117090#15"/>
    </vehicle>
    <vehicle id="35" depart="7.00">
        <route edges="5673210#2 5673210#3 5673210#4 5673047#0 5669742#15"/>
    </vehicle>
    <vehicle id="36" depart="7.20">
        <route edges="5672176#1 5672176#2 5672176#3 5672176#4 -195743164#1 -5670924#2 -5670924#1 -5670924#0 195743341#0 195743341#1 195743341#2 195743341#3 195743341#4 5668989 24264114#0 24264114#1 24264114#2 24264114#3 5672159#0 5672159#1 5672159#2 5669953#6 5670044#8"/>
    </vehicle>
    <vehicle id="38" depart="7.60">
        <route edges="5672604#5 5672176#2 5672176#3 5672176#4 -195743164#1 -5670924#2 -5670924#1 -5670924#0 5672434 196117073 196117073-AddedOffRampEdge 196117091#0 196117091#1 196117091#2 5669953#0 5669953#1 5669953#2 5669953#3 216959250#2"/>
    </vehicle>
    <vehicle id="39" depart="7.80">
        <route edges="5670594#3 5670594#4 5673047#5 5673047#4 5673047#3 5673047#2 5673047#1 5673047#0 5671608#0 5671608#1 5671608#2 5671608#3 5671608#4 5671608#5 5671608#6 5671608#7 46139045#0 46139045#1 46139045#2 46139045#3 46139045#4 46139045#5 46139045#6 46139045#7 5670087#0 5670087#1 195743555#0 195743555#1 195743555#2 5669953#0"/>
    </vehicle>
    <vehicle id="41" depart="8.20">
        <route edges="118400726#6 46582968#5 46582968#6 -276670360#0 5672198#3 5672198#1 5672198#0 5672203 5673093#3"/>
    </vehicle>
    <vehicle id="43" depart="8.60">
        <route edges="5670044#0 5670941#0 5670941#1 5670941#1-AddedOffRampEdge 5670941#2 195743555#4 22927373#6 22927373#7 127693102#5 127693102#6"/>
    </vehicle>
    <vehicle id="44" depart="8.80">
        <route edges="46139045#1 46139045#2 46139045#3 46139045#4 46139045#5 46139045#6 46139045#7 127693102#0 127693102#1 127693102#2 127693102#3 127693102#4 127693102#5 127693102#6 196117090#0 196117090#1 196117090#2 196117090#3 196117090#4 196117090#5 196117090#6 196117090#7 196117090#8 196117090#9 196117090#10"/>
    </vehicle>
    <vehicle id="45" depart="9.00">
        <route edges="25162679#6 25162679#7 195743341#1 195743341#2 195743341#3 195743341#4 5668989 24264114#0 24264114#1 24264114#2 24264114#3 5672159#0 5672159#1 5672159#2 5669953#6 5670044#8 5670044#9 5670044#10 5669842"/>
    </vehicle>
    <vehicle id="47" depart="9.40">
        <route edges="5670514#0 239988110#1 5672922#1 5670044#13 157012386#0 157012386#1 157012387#3 181546837#1 181546837#2 181546837#3 5672138#0"/>
    </vehicle>
    <vehicle id="48" depart="9.60">
        <route edges="5670193#2 194923786#4 5672871#3 5672871#4 181546837#6 181546837#7 181375404#0 181375404#1 46139037#4 46139037#5 46139037#6 46139037#7 46139037#8 46139037#9 46139037#10 46139037#11 5672178#1 5672176#0 5672176#1 5672176#2 5672176#3 25162679#5 5669742#1"/>
    </vehicle>
    <vehicle id="49" depart="9.80">
        <route edges="5671743#0 5671743#1 5670172#0 5670172#1 5670172#2 5669742#8 5669742#9 5669742#10 5669742#11 5669742#12 5669742#13 5669742#15 5669742#16 5669742#17 5669742#18"/>
    </vehicle>
    <vehicle id="50" depart="10.00">
        <route edges="5670498 5673309#1 46139045#3 46139045#4 5673619 157012387#0 157012387#1 157012387#2 157012387#3 181546837#1 181546837#2 181546837#3 181546837#4 181546837#5 181546837#6 181546837#7 5669742#15 5669742#16"/>
    </vehicle>
    <vehicle id="51" depart="10.20">
        <route edges="5671774#5 5671774#6 195743164#4 118400726#0 25162679#3 -5671774#5 -5671774#4 5672604#5"/>
    </vehicle>
    <vehicle id="53" depart="10.60">
        <route edges="5671774#4 5671774#5 5671774#6 -195743164#3 -195743164#2 -195743164#1 -5670924#2 -5670924#1 -5670924#0 5672434 196117090#0 196117090#1 196117090#2 196117090#3 196117090#4 196117090#5 196117090#6 196117090#7"/>
    </vehicle>
    <vehicle id="55" depart="11.00">
        <route edges="5670941#0 5670941#1 5670941#1-AddedOffRampEdge 5670941#2 -195743555#3 -195743555#2 -195743555#1 -195743555#0 -5670087#1 -5670087#0 5670651#0 5670651#0-AddedOffRampEdge 5670651#1 5673089#0 5673089#1 5673089#2 5673089#3 68668558#0 68668558#1 -46582969#1 -46582969#0 5672198#1 5672198#0 5672203 5673093#3 118400726#10 125528659#4"/>
    </vehicle>
    <vehicle id="56" depart="11.20">
        <route edges="34080174#0 34080174#1 34080174#2 34080174#3 34080174#4 167923357 5670731#0 5670731#1 5670731#2 -5670924#0 195743341#0 195743341#1 195743341#2 195743341#3 195743341#4 5668989 24264114#0 24264114#1 24264114#2 24264114#3 5672159#0 5672159#1 5672159#2 5669953#6 46610727#0 46610727#1 46610727#2"/>
    </vehicle>
    <vehicle id="57" depart="11.40">
        <route edges="5671459 68668541#3 5670551#0 167923357 5670731#0 5670731#1 5670731#2 5670924#1 5670924#2 195743164#1 34080149#0 34080149#1 -68668537#1 5672710#0"/>
    </vehicle>
    <vehicle id="58" depart="11.60">
        <route edges="196117073 196117073-AddedOffRampEdge -196117073 196117090#0 196117090#1 196117090#2 196117090#3 196117090#4 196117090#5 196117090#6 196117090#7 196117090#8 196117090#9"/>
    </vehicle>
    <vehicle id="60" depart="12.00">
        <route edges="5672871#4 5671608#2 5671608#3 5671608#4 5671608#5 5671608#6 5671608#7 5671603#0 5671603#1 239988110#0 239988110#1 239988110#2 239988110#3 46610727#3 46610717#0"/>
    </vehicle>
    <vehicle id="61" depart="12.20">
        <route edges="194923810#0 194923810#1 194923810#2 194923810#3 46139045#0 46139045#1 46139045#2 46139045#3 46139045#4 46139045#5 46139045#6 46139045#7 127693102#0 127693102#1 127693102#2 127693102#3 127693102#4 127693102#5 127693102#6 -5672434"/>
    </vehicle>
    <vehicle id="64" depart="12.80">
        <route edges="5670044#2 5670044#3 5670044#4 216959250#0 216959250#1 5669953#4 25199402#0 25199402#1 25199402#2 25199402#3 25199402#4 5673619 5672040#0 5672040#1 5672040#2"/>
    </vehicle>
    <vehicle id="65" depart="13.00">
        <route edges="-5671774#16 -5671774#15 -5671774#14 -5671774#13 -5671774#12 -5671774#11 -5671774#10 -5671774#9 -5671774#8 -195743164#3 -195743164#2 -195743164#1 -5670924#2 -5670924#1 -5670924#0 195743341#0 195743341#1 195743341#2 5671668#0"/>
    </vehicle>
    <vehicle id="66" depart="13.20">
        <route edges="196117091#1 196117091#2 -195743555#2 -195743555#1 -195743555#0 -5670087#1 -5670087#0 5670651#0 5670651#0-AddedOffRampEdge 5670651#1 5673089#0 5673089#1 5673089#2 5673089#3 5669742#6 5669742#7 5669742#8 5669742#9 5669742#10 5670897#0 25199883#4 25199883#5"/>
    </vehicle>
    <vehicle id="67" depart="13.40">
        <route edges="5671754#1 157012398#1 157012387#0 157012387#1 157012387#2 157012387#3 181546837#1 181546837#2 181546837#3 -46332295#3 -46332295#2 194923786#3 5670193#3 5670193#4"/>
    </vehicle>
    <vehicle id="68" depart="13.60">
        <route edges="5671663#1 5668989 24264114#0 127693102#1 127693102#2 127693102#3 127693102#4 127693102#5 5669806#1 5669806#2"/>
    </vehicle>
    <vehicle id="69" depart="13.80">
        <route edges="181546837#2 181546837#3 181546837#4 181546837#5 181546837#6 181546837#7 181375404#0 181375404#1 46139037#4 46139037#5 46139037#6 46139037#7 46139037#8 46139037#9 46139037#10 68668558#1 46582977 5670782 5671774#0 5671095#0 5671095#1 5669962#5 118400726#4 118400726#5"/>
    </vehicle>
    <vehicle id="70" depart="14.00">
        <route edges="125528659#4 165777951#0 165781913#0 165781913#1 46582969#0 46582969#1 5672178#0 5672178#1 5672176#0 5672176#1 5672176#2 5672176#3 5672176#4 -195743164#1 -5670924#2 -5670924#1 -5670924#0 195743341#0 195743341#1 195743341#2 5671668#0 5671668#1"/>
    </vehicle>
    <vehicle id="71" depart="14.20">
        <route edges="5669806#0 127693102#6 -5672434 5670924#0 5670924#1 5670924#2 5669742#0 5669742#1 5669742#2 5669742#3 5669742#4 5669742#5 5669742#6 5669742#7 5669742#8 5669742#9 5673093#0 5673093#1"/>
    </vehicle>
    <vehicle id="73" depart="14.60">
        <route edges="157012398#0 157012398#1 5672040#0 5672040#1 5672040#2 5672040#3 5671743#0 5671743#1 5672896#0 5672896#1 5673089#1 5673089#2 5673089#3 68668558#0 68668558#1 46582977 5670782 5671774#0 5671774#1 5671774#2 5671774#3 5671774#4 5671774#5 5671774#6 -195743164#3"/>
    </vehicle>
    <vehicle id="80" depart="16.00">
        <route edges="34080174#3 34080174#4 167923357 5670731#0 5670731#1 5670731#2 -5670924#0 195743341#0 195743341#1 195743341#2 195743341#3 195743341#4 195743341#5 68674966#0 68674966#1 24264070#0 24264070#1 157012398#0 157012398#1 157012387#0 5670897#7"/>
    </vehicle>
    <vehicle id="81" depart="16.20">
        <route edges="5671359#0 196117090#1 5671698#6 68668541#2 68668541#3 68668541#4 68668541#5 68668541#6"/>
    </vehicle>
    <vehicle id="82" depart="16.40">
        <route edges="5669742#7 5669742#8 5669742#9 5669742#10 5669742#11 5669742#12 5669742#13 5671608#0 5671608#1 5671608#2 5671608#3 5671608#4 5671608#5 5671608#6 157012387#5 157012387#6"/>
    </vehicle>
    <vehicle id="83" depart="16.60">
        <route edges="5670009#1 -5671774#8 -195743164#3 -195743164#2 -195743164#1 -5670924#2 -5670924#1 -5670924#0 68668541#0"/>
    </vehicle>
    <vehicle id="84" depart="16.80">
        <route edges="46332295#0 46332295#1 46332295#2 46332295#3 181546837#4 181546837#5 181546837#6 181546837#7 181375404#0 181375404#1 46139037#4 46139037#5 46139037#6 46139037#7 46139037#8 5673093#1 165781913#0 165781913#1 46582971#1"/>
    </vehicle>
    <vehicle id="85" depart="17.00">
        <route edges="194923786#9 5670366#7 5673316#4 46139037#1 46139037#2 46139037#4 46139037#5 46139037#6 46139037#7 46139037#8 46139037#9 46139037#10 46139037#11 5673533#1 5669742#5 68668558#0"/>
    </vehicle>
    <vehicle id="86" depart="17.20">
        <route edges="-5671774#13 -5671774#12 -5671774#11 -5671774#10 -5671774#9 -5671774#8 -5671774#6 -5671774#5 -5671774#4 -5671774#3 -5671774#2 -5671774#1 -5671774#0 -276670360#1 -276670360#0 5672198#3 165781913#2 46608205#0 46608205#1"/>
    </vehicle>
    <vehicle id="87" depart="17.40">
        <route edges="5670897#5 5670897#6 157012387#1 157012387#2 157012387#3 181546837#1 181546837#2 181546837#3 181546837#4 181546837#5 181546837#6 181546837#7 5669742#15 5669742#16 5669742#17 5669742#18 5669742#19"/>
    </vehicle>
    <vehicle id="88" depart="17.60">
        <route edges="196117073 196117073-AddedOffRampEdge 196117091#0 196117091#1 196117091#2 -195743555#2 -195743555#1 -195743555#0 -5670087#1 -5670087#0 5670651#0 5670651#0-AddedOffRampEdge 5670651#1 5673089#0 5673089#1 5673089#2 5673089#3 5669742#6 5669742#7 5669742#8 5669742#9 5669742#10 5669742#11 5669742#12 5669742#13 5669742#15 5669742#16 5669742#17 5669742#18 5669742#19 5669742#20 5669742#21 5669742#22 5669742#23 5669742#24"/>
    </vehicle>
    <vehicle id="89" depart="17.80">
        <route edges="5670897#7 46139045#4 46139045#5 46139045#6 46139045#7 5670651#0 5670651#0-AddedOffRampEdge 5670651#1 5673089#0 5673089#1 5673089#2 5673089#3 68668558#0 68668558#1 46582977 5670782 5671774#0 5671774#1 5671774#2 5671774#3 5671774#4 5671429#4 5671429#5 5671429#6 5671429#7 5671429#8"/>
    </vehicle>
    <vehicle id="90" depart="18.00">
        <route edges="5672871#1 5672871#2 5672871#3 5672871#4 5671608#2 5671608#3 5671608#4 5671608#5 5671608#6 5671608#7 46139045#0 46139045#1 46139045#2 46139045#3 46139045#4 46139045#5 46139045#6 46139045#7 5670651#0 5670651#0-AddedOffRampEdge 5671799#0 5671799#1 5670171#0"/>
    </vehicle>
    <vehicle id="91" depart="18.20">
        <route edges="5671429#2 5672176#3 5672176#4 -195743164#1 -5670924#2 -5670924#1 -5670924#0 195743341#0 195743341#1 195743341#2 195743341#3 195743341#4 5668989 24264114#0 24264114#1 24264114#2 24264114#3 5672159#0 5672159#1 5672159#2 5669953#6"/>
    </vehicle>
    <vehicle id="92" depart="18.40">
        <route edges="46582968#4 46582968#5 46582968#6 -276670360#0 5672198#3 46582969#0 46582969#1 -5670780#1 -5670780#0 5669742#7 5669742#8 5669742#9 5669742#10 5670897#0 5670897#1 5670897#2 5670897#3 5670897#4 5670897#5 5670897#6 157012387#1 157012387#2"/>
    </vehicle>
    <vehicle id="93" depart="18.60">
        <route edges="5672871#0 5672871#1 5672871#2 5672871#3 5672871#4 181546837#6 181546837#7 181375404#0 181375404#1 46139037#4 46139037#5 46139037#6 46139037#7 46139037#8 46139037#9 46139037#10 46139037#11 5672178#1 5672176#0"/>
    </vehicle>
    <vehicle id="94" depart="18.80">
        <route edges="25199870#2 194923786#2 46332295#2 46332295#3 181546837#4 5670193#1 5673316#10 -46332295#2"/>
    </vehicle>
    <vehicle id="95" depart="19.00">
        <route edges="118400726#6 46582968#5 46582968#6 -276670360#0 5672198#3 46582969#0 46582969#1 5672178#0 5672178#1 5672176#0 5672176#1 5672176#2 5672176#3 5672176#4 -195743164#1 -5670924#2 -5670924#1 -5670924#0 195743341#0"/>
    </vehicle>
    <vehicle id="96" depart="19.20">
        <route edges="-195743164#5 -195743164#4 -195743164#3 -195743164#2 -195743164#1 -5670924#2 -5670924#1 -5670924#0 195743341#0 195743341#1 195743341#2 195743341#3 5669962#0 5672896#4"/>
    </vehicle>
    <vehicle id="97" depart="19.40">
        <route edges="68668541#0 68668541#1 5672713 5670731#1 5670731#2 5670924#1 5670924#2 5669742#0 5669742#1 5669742#2 5669742#3 5669742#4 5669742#5 5669742#6 5669742#7 5669742#8 5669742#9 5669742#10 5669742#11 5669742#12 5669742#13 5669742#15 5669742#16 5669742#17 5669742#18 5669742#19 5669742#20 5669742#21 5669742#22 5669742#23 5669742#24 5669742#25"/>
    </vehicle>
    <vehicle id="98" depart="19.60">
        <route edges="5672604#2 5672604#3 5672604#4 5671774#4 5671774#5 5671774#6 -195743164#3 -195743164#2"/>
    </vehicle>
    <vehicle id="99" depart="19.80">
        <route edges="5669806#0 127693102#6 -5672434 5670924#0 5670924#1 5670924#2 5669742#0 5669742#1 5669742#2 5669742#3 5669742#4 5669742#5 5669742#6 5669742#7 5669742#8 5669742#9 5669742#10 5669742#11 5669742#12 5669742#13 181375404#0 181375404#1 181375404#2 181375404#3 181375404#4 181375404#5 181375404#6 181375404#7"/>
    </vehicle>
    <vehicle id="100" depart="20.00">
        <route edges="5670204 5671754#0 46139045#6 46139045#7 5670087#0 5670087#1 195743555#0 5672073#0"/>
    </vehicle>
    <vehicle id="102" depart="20.40">
        <route edges="118400726#8 5672184#1 165781913#1 46582969#0 46582969#1 5672178#0 5672178#1 5672176#0 5672176#1 5672176#2 5672176#3 5672176#4 -195743164#1 -5670924#2 -5670924#1 -5670924#0 5672434 196117073 196117073-AddedOffRampEdge -196117073"/>
    </vehicle>
    <vehicle id="103" depart="20.60">
        <route edges="216959250#0 216959250#1 5669953#4 5669953#5 5669953#6 5670044#8 5670044#9 5670044#10 5670044#11 5670044#12 5670044#13 157012386#0 157012386#1 157012386#2 157012386#3 157012386#4 5672138#1"/>
    </vehicle>
    <vehicle id="104" depart="20.80">
        <route edges="5673210#3 5672214#0 46139037#2 46139037#4 46139037#5 46139037#6 46139037#7 46139037#8 5673093#1 5670594#0 5670594#1"/>
    </vehicle>
    <vehicle id="105" depart="21.00">
        <route edges="5673052#2 5673052#4 195743555#2 195743555#3 195743555#4 195743555#5 -195743555#5-AddedOnRampEdge"/>
    </vehicle>
    <vehicle id="107" depart="21.40">
        <route edges="5673316#8 5672871#4 181546837#6 181546837#7 181375404#0 181375404#1 46139037#4 46139037#5 46139037#6 46139037#7 5669978#1 5669978#2 5670897#0 25199883#4"/>
    </vehicle>
    <vehicle id="108" depart="21.60">
        <route edges="68668537#1 22902608#0 22902608#1 22902608#2 22902608#3 22902608#4 5669742#0 5669742#1 5669742#2 5669742#3 5669742#4 5669742#5 5669742#6 5669742#7 5669742#8 5669742#9 5669742#10 5669742#11 5669742#12 5669742#13 5669742#15 5669742#16 194923786#7 194923786#8 46139037#0 46139037#1 -5672214#0"/>
    </vehicle>
    <vehicle id="109" depart="21.80">
        <route edges="127693102#0 24264114#1 -5670087#0 5670651#0 5670651#0-AddedOffRampEdge 5671799#0 5671799#1 157012398#0 157012398#1 157012387#0 157012387#1 157012387#2 157012387#3 157012387#5 5672654 5669925"/>
    </vehicle>
    <vehicle id="111" depart="22.20">
        <route edges="-5672434 5670924#0 5670924#1 5670924#2 195743164#1 195743164#2 195743164#3 195743164#4 118400726#0 118400726#1 118400726#2 118400726#3 118400726#4 118400726#5 118400726#6 46582968#5"/>
    </vehicle>
    <vehicle id="112" depart="22.40">
        <route edges="181375404#3 181375404#4 188559800#9 157012386#14 165777951#2 165777951#1 165777951#0 165781913#0 165781913#1 46582969#0 46582969#1 5672178#0 5672178#1 5672176#0 5672176#1 5672176#2 5672176#3 5672176#4 -195743164#1 -5670924#2 -5670924#1 -5670924#0 68668541#0 68668541#1 68668541#2 68668541#3 5670551#0 5670551#1 5670551#2 5670551#3"/>
    </vehicle>
    <vehicle id="113" depart="22.60">
        <route edges="-5671774#2 5671659#4 5671659#5 5673533#1 5669742#5 5669742#6 5669742#7 5669742#8 5672910#0 5672910#1 5672873#1 5670172#1 25199883#1"/>
    </vehicle>
    <vehicle id="114" depart="22.80">
        <route edges="5672710#0 5672710#1 5672710#2"/>
    </vehicle>
    <vehicle id="115" depart="23.00">
        <route edges="22897632 5670731#0 5670731#1 5670731#2 5670924#1 5670924#2 5669742#0 5669742#1"/>
    </vehicle>
    <vehicle id="121" depart="24.20">
        <route edges="5670651#1 5673089#0 5673089#1 5673089#2 5673089#3 68668558#0 46139037#11 5672178#1 5672176#0 5672176#1 5672176#2 5672176#3 5672176#4 -195743164#1 5669742#0"/>
    </vehicle>
    <vehicle id="122" depart="24.40">
        <route edges="5673047#8 5673047#7 165777951#4 165777951#3 165777951#2 165777951#1 165777951#0 165781913#0 165781913#1 46582969#0 46582969#1 5672178#0 5672178#1 5672176#0 5672176#1 5672176#2 5672176#3 5672176#4 -195743164#1 -5670924#2 -5670924#1 -5670924#0 5672434 196117090#0 196117090#1 196117090#2 196117090#3 196117090#4 196117090#5 196117090#6 196117090#7 196117090#8 196117090#9"/>
    </vehicle>
    <vehicle id="123" depart="24.60">
        <route edges="5669806#1 196117091#1 196117091#2 -195743555#2 -195743555#1 -195743555#0 195743556#0 195743556#1 195743556#2 195743341#4"/>
    </vehicle>
    <vehicle id="124" depart="24.80">
        <route edges="118400726#2 5672604#4 5671774#4 5671774#5 5671774#6 -195743164#3 -195743164#2 -195743164#1 -5670924#2 -5670924#1 -5670924#0 5672434 196117073 196117073-AddedOffRampEdge 196117091#0 196117091#1 196117091#2 5671668#2 5671668#3 46608946#4 46608946#5"/>
    </vehicle>
    <vehicle id="126" depart="25.20">
        <route edges="5671668#0 127693102#4 22927373#8 195743341#2 195743341#3 195743341#4 195743341#5 5673089#0 5673089#1 5673089#2 5673089#3 68668558#0 68668558#1 46582977 5670782 5670232#0"/>
    </vehicle>
    <vehicle id="127" depart="25.40">
        <route edges="196117091#1 196117091#2 -195743555#2 -195743555#1 -195743555#0 -5670087#1 -5670087#0 5670651#0 5670651#0-AddedOffRampEdge 5670651#1 5673089#0 5673089#1 5673089#2 5673089#3 5669742#6 5669742#7 5669742#8 5669742#9 5669742#10 5669742#11 5669742#12 5669742#13 5669742#15 5669742#16 5669742#17 5669742#18 5669742#19"/>
    </vehicle>
    <vehicle id="128" depart="25.60">
        <route edges="-196117073 -5672434 195743341#0 195743341#1 195743341#2 195743341#3 195743341#4 5668989 24264114#0 24264114#1 24264114#2 24264114#3 5672159#0 5672159#1 5672159#2 5669953#6 5670044#8 5670044#9 5670044#10 5670044#11 5670044#12 5670044#13 46139045#2"/>
    </vehicle>
    <vehicle id="129" depart="25.80">
        <route edges="118400726#10 118400726#11 118400726#12 118400726#13 5671111#2 5671111#3 5670594#4 5673047#5 5673047#4 5673047#3 5673047#2 5673047#1 5673047#0 5671608#0 5671608#1 5671608#2 5671608#3 5671608#4 5671608#5 5671608#6 5671608#7 5671603#0 5671603#1 239988110#0 5670514#1"/>
    </vehicle>
    <vehicle id="130" depart="26.00">
        <route edges="34080174#3 34080174#4 167923357 5670731#0 5670731#1 5670731#2 5670924#1 5670924#2 5669742#0 5669742#1 5669742#2 5669742#3 5669742#4 5669742#5 68668558#0 68668558#1 -46582969#1 -46582969#0 5672198#1 5672198#0 5672203 5670594#0 5670594#1 5670594#2 5670594#3 5670594#4"/>
    </vehicle>
    <vehicle id="131" depart="26.20">
        <route edges="46608946#4 5670941#1 5670941#1-AddedOffRampEdge 5670941#2 -195743555#3 -195743555#2 -195743555#1 -195743555#0 -5670087#1 -5670087#0 5670651#0 5670651#0-AddedOffRampEdge 5670651#1 5673089#0 5673089#1 5673089#2 5673089#3 5669742#6 5669742#7 5669742#8 5669742#9 5669742#10 5669742#11 5669742#12 5669742#13 181375404#0 181375404#1 181375404#2 181375404#3 5670092#2 5673316#3 5673316#4"/>
    </vehicle>
    <vehicle id="132" depart="26.40">
        <route edges="25199870#2 194923786#2 46332295#2 46332295#3 181546837#4 181546837#5 181546837#6 181546837#7 181375404#0 181375404#1 46139037#4 46139037#5 46139037#6 46139037#7 46139037#8 5673093#1 5673093#3 118400726#10"/>
    </vehicle>
    <vehicle id="136" depart="27.20">
        <route edges="46350694#2 194923810#3 46139045#0 46139045#1 46139045#2 46139045#3 46139045#4 46139045#5 46139045#6 46139045#7 5670651#0 5670651#0-AddedOffRampEdge 5670651#1 5673089#0 5673089#1 5673089#2 5673089#3"/>
    </vehicle>
    <vehicle id="137" depart="27.40">
        <route edges="25162679#1 25162679#2 25162679#3 5671774#6 -195743164#3 -195743164#2 -195743164#1 -5670924#2 -5670924#1 -5670924#0 195743341#0 195743341#1 195743341#2 5671668#0 127693102#4 127693102#5"/>
    </vehicle>
    <vehicle id="139" depart="27.80">
        <route edges="5669742#2 5672607#0 5672607#1 195743341#3 195743341#4 5668989 24264114#0 24264114#1 24264114#2 24264114#3 24264114#4 46608946#0 216959250#1"/>
    </vehicle>
    <vehicle id="141" depart="28.20">
        <route edges="46350707#0 46350707#1 46350707#2 46350707#3 46350707#4 194923810#0 194923810#1 194923810#2 194923810#3 181546837#0 181546837#1 181546837#2 181546837#3 -46332295#3 -46332295#2"/>
    </vehicle>