<?xml version="1.0" encoding="UTF-8"?>

<!-- generated on Wed May 28 17:13:58 2014 by SUMO duarouter Version 0.17.1
<?xml version="1.0" encoding="UTF-8"?>

<configuration xmlns:xsi="http://www.w3.org/2001/XMLSchema-instance" xsi:noNamespaceSchemaLocation="http://sumo.sf.net/xsd/duarouterConfiguration.xsd">

    <input>
        <net-file value="/home/pierpaolo/Scrivania/scriptMirco/scriptMirco/facilitatore/v0.4/v0.4/net/newyork/newyork.net.xml"/>
        <trip-files value="/home/pierpaolo/Scrivania/scriptMirco/scriptMirco/facilitatore/v0.4/v0.4/rou/newyork/newyork.trips.xml"/>
    </input>

    <output>
        <output-file value="/home/pierpaolo/Scrivania/scriptMirco/scriptMirco/facilitatore/v0.4/v0.4/rou/newyork/newyork.rou.xml"/>
    </output>

    <processing>
        <ignore-errors value="true"/>
    </processing>

    <time>
        <begin value="1.0"/>
        <end value="450.0"/>
    </time>

</configuration>
-->

<routes xmlns:xsi="http://www.w3.org/2001/XMLSchema-instance" xsi:noNamespaceSchemaLocation="http://sumo.sf.net/xsd/routes_file.xsd">
    <vehicle id="0" depart="1.00">
        <route edges="109491639 36806907 46492015 46492016 46492007#0-AddedOnRampEdge 46492007#0 36806677 46492010#1 46481747#2 36806661#0 36806661#1 36806908#1 46492009 46492034 46492034-AddedOffRampEdge 36806909 46482821#0 46482821#1 46482819#0 46482819#1 36801278"/>
    </vehicle>
    <vehicle id="1" depart="1.40">
        <route edges="22904020#5 22904020#6 22904020#7 22904020#8 34625464#4 34625464#5 34625464#6 34625464#7 34625464#8 34625464#9 22909136 22897720 5672800 22909247 46431821#0 95181768#3 95181768#4 95181768#5 95181768#6 95181768#7 95181768#8 95181768#9 95181768#10 95181768#11 95181768#12 95181768#13 95181768#14 95181768#15 95181768#16 95181768#17 95181772#0 22927463#0 22927463#1 22927463#2 -95181771#3 -95181771#2 -95181771#1 -95181771#0 -22897851#18 -22897851#17 46139033#3 46139033#4 46139033#5 256902829 68675820#0 68675820#1 68675820#2 46332301#5"/>
    </vehicle>
    <vehicle id="2" depart="1.80">
        <route edges="-5671701 222299276#0 222299276#1 222299276#2 222299276#3 144001606 144001605#0 144001605#1 144001605#2 144001605#3 144001605#4 144001605#5 46518732 169383517 169383516 46518731#0 46518731#1 46518731#2 46518731#3 46518731#4 226092572#0 226092572#1 169267536 46518738#0 169267537#1 169267537#2 169267537#3 169267537#4 169267537#5 169267537#6 169381958#0 46522162#2 226041009#0"/>
    </vehicle>
    <vehicle id="3" depart="2.20">
        <route edges="25162679#2 118400726#1 118400726#2 118400726#3 118400726#4 118400726#5 118400726#6 118400726#7 118400726#8 118400726#9 118400726#10 118400726#11 118400726#12 118400726#13 5671083 -195743157 -46139043#3 -46139043#2 -46139043#1 -166038132#3 -166038132#2 -166038132#1 -166038132#0 166038145 166038501 240449807#0 240449807#1 165775865#3 165775865#4 165775865#5 165775865#6 165775306 222299242#0 222299242#1 46116332#0"/>
    </vehicle>
    <vehicle id="4" depart="2.60">
        <route edges="157012398#0 157012398#1 157012387#0 5670897#7 46139045#4 46139045#5 46139045#6 46139045#7 127693102#0 127693102#1 127693102#2 127693102#3 127693102#4 127693102#5 127693102#6 196117090#0 196117090#1 196117090#2 196117090#3 196117090#4 196117090#5 196117090#6 196117090#7 196117090#8 116672333#8 5671620#0 5671620#2 5671393#0 5671393#1 196117042#0 196117042#1 196117042#2 196117042#3 196117042#4 196117042#5 196117042#6 195743182#0 195743182#1 5671315#1 5671315#3 5671315#4 221157083#10 46469731#1"/>
    </vehicle>
    <vehicle id="5" depart="3.00">
        <route edges="32935111#1 32936740 32936735 32936736 32936741#0 32936741#0-AddedOffRampEdge 32936245#0 32936245#1 -32937066#0 32936385 5671887#1 5671887#2 5671887#3-AddedOnRampEdge"/>
    </vehicle>
    <vehicle id="6" depart="3.40">
        <route edges="22916379#1 118714476#3 118714476#4 118714476#5 118714476#6 118714476#7 118714476#8 46432187 68668540#0 68668540#1 46490540#0 46490540#1-AddedOnRampEdge 46490540#1 46490540#2 -273019810#0 -273019807 -36806903#1 -139919706 139919714#0 139919714#1 46481747#3 46481747#4 46481747#5 194926854#2 46522005#3"/>
    </vehicle>
    <vehicle id="8" depart="4.20">
        <route edges="46520833#0 46520833#1 195743343#1 195743343#2 195743343#3 195743343#4 195743343#5 195743343#6 195743343#7 68668552#0 68668552#1 22898643#0 22898643#1 34080174#0 34080174#1 34080174#2 34080174#3 34080174#4 167923357 5670731#0 5670731#1 5670731#2 -5670924#0 68668541#0 68668541#1 68668541#2"/>
    </vehicle>
    <vehicle id="9" depart="4.60">
        <route edges="5673342#0 5673342#1 46139034#0 46350694#2 194923810#3 181546837#0 181546837#1 181546837#2 181546837#3 181546837#4 181546837#5 181546837#6 181546837#7 181375404#0 181375404#1 181375404#2 181375404#3 181375404#4 181375404#5 181375404#7 195743178#0 195743178#1 195743178#2 181546839#0 181546839#1 181546839#2 195745917 199927850#0 199927850#1 199927850#2 199927850#3 199927850#4 46201665 32972072#0 32972072#0-AddedOffRampEdge 32972072#1 32972072#2 32972072#3 32972072#4 46629371 32936741#0 32936741#0-AddedOffRampEdge 32936741#1 32939209"/>
    </vehicle>
    <vehicle id="10" depart="5.00">
        <route edges="5671059#1 46351263 5671410#0 32972072#3 32935473 32936733 32936739#1-AddedOnRampEdge 32936739#1 32936739#2 32936739#3-AddedOnRampEdge 32936739#3 32936739#3-AddedOffRampEdge 32936739#4 19726066 5669194#0 5669194#0-AddedOffRampEdge 5669194#1 32922457 46116183#0 46116183#1 165731797#0 -5671593#2 -5671593#1 -5671593#0 -46160244#3 -46160244#2 5669631 46160098#0 46160098#1 262244364#0 262244364#1 25026341 194923759#0 194923759#1 46116329 222299238#0 222299238#1"/>
    </vehicle>
    <vehicle id="11" depart="5.40">
        <route edges="194926856#7 194926856#8 194926856#9 194926856#10 194926856#11 156994977#0 156994977#1 156994977#2 194923812#0 194923812#1 127693388#0 127693388#1 127693388#2 -196117074#1 -196117074#0 196117091#0 196117091#1 196117091#2 5669953#0 5669953#1 5669953#2 5669953#3 5669953#4 5669953#5 5669953#6 46610727#0 46610727#1 46610727#2 46610727#3 46610727#4 5673342#0 5673342#1 46139034#0 46139034#1 46139034#2 46139034#3 46139034#4 46139034#5 46139033#0 46139033#1 46139033#2 -22897851#16 -22897851#15 -22897851#14 -22897851#13 -22897851#12 -22897851#11 -22897851#10 -22897851#9 -22897851#8 -22897851#7 -22897851#6 -22897851#5 -22897851#4 -22897851#3 -22897851#2 -22897851#1 165775865#3 165775865#4 165775865#5 165775865#6 165775306 222299242#0 5670092#14 -42786502 -194923783#2 -194923783#1 -5671717#1 -5671717#0 5671204#0 5671204#1 25562074 25562074-AddedOffRampEdge 46154298 5671197#1 5671197#2 5671197#3 5671197#4 5671197#5 5671197#7 5671197#8"/>
    </vehicle>
    <vehicle id="13" depart="6.20">
        <route edges="5673093#3 118400726#10 125528659#4 165777951#0 165781913#0 165781913#1 46582969#0 46582969#1 5672178#0 5672178#1 5672176#0 5672176#1 5672176#2 5672176#3 5672176#4 34080149#0 34080149#1 -68668537#1 -68668537#0 -5670522 5672937#0 5672937#1 5672937#2 5672937#3 5672937#4 5672937#5 -5671620#3 -5671620#2 -5671620#0 -116672333#8 196117090#9 196117090#10 196117090#11 196117090#12 196117090#13 196117090#14 196117090#15 196117090#16 68668519#0 68668519#1 68668519#2 68668519#3 68668519#4 68668519#5 68668519#6 68668519#7 68668519#8 68668519#9 127693103#0 127693103#1 127693103#2 127693103#3 127693103#4"/>
    </vehicle>
    <vehicle id="14" depart="6.60">
        <route edges="46139046#0 46139046#1 46139046#2 46139046#3 46139046#4 256902826#0 256902826#1 256902826#2 194923810#0 194923810#1 194923810#2 194923810#3 46139045#0 46139045#1 46139045#2 46139045#3 46139045#4 46139045#5 46139045#6 46139045#7 127693102#0 127693102#1 127693102#2 127693102#3 127693102#4 127693102#5 127693102#6 196117090#0 196117090#1 196117090#2 196117090#3 196117090#4 196117090#5 196117090#6 196117090#7 196117090#8 196117090#9 196117090#10 196117090#11 196117090#12 196117090#13 196117090#14 196117090#15 196117090#16 5671932#2 68668556 226041020"/>
    </vehicle>
    <vehicle id="15" depart="7.00">
        <route edges="5670418#0 46171885#2 22927411#3 46139040#1 46139040#2 -22897851#18 -22897851#17 -22897851#16 -22897851#15 46139046#2 46139046#3 46139046#4 256902826#0 256902826#1 256902826#2 194923810#0 194923810#1 194923810#2 194923810#3 46139045#0 46139045#1 46139045#2 46139045#3 46139045#4 46139045#5 46139045#6 46139045#7 127693102#0 127693102#1 127693102#2 127693102#3 127693102#4 127693102#5 127693102#6 196117090#0 196117090#1 196117090#2 196117090#3 196117090#4 196117090#5 196117090#6 196117090#7 196117090#8 116672333#8 5671620#0 5671620#2 5671393#0 5671393#1 196117042#0 196117042#1 196117042#2 196117042#3 196117042#4 196117042#5 196117042#6 195743182#0 195743182#1 195743182#2 195743182#3 195743182#4 195743182#5 195743182#6 195743182#7 195743182#8 195743182#9 195743182#10 195743182#11 195743182#12 195743182#13 5670225#1 5670225#2 5670225#3 5670225#4 46240204#0 46240204#1 46240204#2"/>
    </vehicle>
    <vehicle id="16" depart="7.40">
        <route edges="-5670254#1 -5670254#0 -195743164#2 34080149#0 34080149#1 -68668537#1 -68668537#0 -5670522 5672937#0 5672937#1 5672937#2 5672937#3 5672937#4 5672937#5 -5671620#3 5671393#0 5671393#1 196117042#0 196117042#1 196117042#2 196117042#3 196117042#4 196117042#5 46334598#3 5671932#0 46581216#0 46334597"/>
    </vehicle>
    <vehicle id="17" depart="7.80">
        <route edges="-68668521#2 -68668521#0 194923807#0 194923807#1 194923807#2 194923807#3 194923807#4 194923807#6 222299276#0 222299276#1 222299276#2 222299276#3 -50603617 -5671315#7 -5671315#6 -5671315#5 221157083#10 221157083#11 221157083#12 221157083#13 221157083#14 221157083#15 221157083#16 221157083#17 221157083#18 221157083#19 221157083#20 221157083#21 221157083#22 221157083#23 221157083#24 221157083#25 221157083#26 221157083#27 221157083#28 221157083#29 46521998#0 46521998#1 46521998#2 46240204#7 46240204#8 46240204#9 46240204#10 46240204#11 46240204#12 46240204#13 46240204#14 46240204#15 46240204#16 46240204#17 46240204#18 46240204#19 46240204#20 46240204#21 46240204#22 46240204#23 46240204#24 46240204#25 46240204#26 46240204#27"/>
    </vehicle>
    <vehicle id="18" depart="8.20">
        <route edges="32972072#3 32972072#4 32935551#0 32935551#1 32935551#2 32935551#3 32935551#4 194923766#0 194923766#1 199927849#2 199927849#1 199927849#0 195745916 68325065#2 68325065#1 68325065#0 5673047#10 5673047#9 5673047#8 5673047#7-AddedOnRampEdge 5673047#7 165777951#4 165777951#3 165777951#2 165777951#1 165777951#0 165781913#0 165781913#1 46582969#0 46582969#1 5672178#0 5673533#1 5671663#0 5672896#3 5669962#1"/>
    </vehicle>
    <vehicle id="19" depart="8.60">
        <route edges="5670488#1 5670488#2 181546837#3 181546837#4 181546837#5 181546837#6 181546837#7 181375404#0 181375404#1 181375404#2 181375404#3 181375404#4 181375404#5 40709921#1 40709921#2 112116236 112116234#0 112116234#1 165777195#0 165777195#1 165777195#2 165777195#3 165777195#4 165775865#3 165775865#4 165775865#5 165775865#6 165775306 222299242#0 222299242#1 46116332#0 -5671212#3 -5671212#2"/>
    </vehicle>
    <vehicle id="20" depart="9.00">
        <route edges="46171889#1 5671436#1 5671436#2 46171882#2 46171882#4 46171882#5 46171882#6 5672377#0 5672377#1 5672377#2 5672377#3 222299277#0 222299277#1 222299254#0 222299254#1 222299254#2 222299254#3 222299254#4 222299254#5 222299254#6 222299254#7 5669922#0 5669922#1 5671480#2 5671480#3 5671480#4 5671480#5 5671480#6 125436141#4 68668539#0 68668539#1 68668539#2 68668546#7 68668546#8 5670366#5"/>
    </vehicle>
    <vehicle id="21" depart="9.40">
        <route edges="22897851#16 22897851#17 22897851#18 46139041#0 46139041#1 125479715#0 125479715#1 125479715#2 125479715#3 125479715#4 125479715#5"/>
    </vehicle>
    <vehicle id="23" depart="10.20">
        <route edges="33804436#1 194923755#1 32938997 -194923765 -68668521#2 -68668521#0 -194926839#0 -5671620#6 -5671620#5 -5671620#4 -5671620#3 -5671620#2 -5671620#0 -116672333#8 -116672333#7 -116672333#6 127693383#0 127693383#1 127693383#2 127693383#3 127693383#4 127693383#5 127693383#6 127693383#7 5671932#4 5671932#5 46490538#0 46490538#1 46490538#2 46490537#0 5672730"/>
    </vehicle>
    <vehicle id="24" depart="10.60">
        <route edges="222299238#2 222299238#3 195743264#3 -46165812 46171884#2 5669882#0 5669882#1 222299277#1 222299254#0 222299254#1 222299254#2 222299254#3 222299254#4 222299254#5 222299254#6 222299254#7 5669922#0 5669922#1 5669922#2 46139046#0 46139046#1 46139046#2 46139046#3 46139046#4 256902826#0 256902826#1 256902826#2 194923810#0 194923810#1 194923810#2 194923810#3 46139045#0 46139045#1 46139045#2 46139045#3 46139045#4 46139045#5 46139045#6 46139045#7 127693102#0 127693102#1 127693102#2 127693102#3 127693102#4 127693102#5 127693102#6 196117090#0 196117090#1 196117090#2 196117090#3 196117090#4 196117090#5"/>
    </vehicle>
    <vehicle id="25" depart="11.00">
        <route edges="32936739#3-AddedOffRampEdge 32935112 46629376#0 46629376#1 46629376#2 46154286 -46334605#4 -46334605#3 -46334605#2 -46334605#1 -46334605#0 -5671197#8 -5671197#7 -5671197#5 -5671197#4 -5671197#3 -5671197#2 -32922451"/>
    </vehicle>
    <vehicle id="26" depart="11.40">
        <route edges="196117039#20 196117039#21 196117039#22 196117039#23 196117039#24 196117039#25 196117039#26 196117039#27 196117039#28 196117039#29 196117039#30 -5671315#3 68674965#0 68674965#1 -196117051#6 -196117051#5 -196117051#4 -196117051#3 -196117051#2 -196117051#1 -196117051#0 -5672937#7 -5672937#6 -5672937#5 -5672937#4 -5672937#3 -5672937#2 -5672937#1 -5672937#0 5670522 68668537#0 68668537#1 22902608#0 22902608#1 22902608#2 22902608#3 22902608#4 5669742#0 5669742#1 5669742#2 5669742#3 5669742#4 5669742#5 5669742#6 5669742#7 5669742#8 5669742#9 5669742#10 5669742#11 5669742#12 5669742#13 5669742#15 5669742#16 5669742#17 46348767#2 46348767#3 46348767#4 46348767#5 5671291#0 5671291#1 256902825 46139033#1 46139033#2 22897851#17 22897851#18 95181771#0 95181771#1 95181771#2 95181771#3 22927484#0 22927484#1 22927484#2 95181772#0"/>
    </vehicle>
    <vehicle id="27" depart="11.80">
        <route edges="-5672937#1 -5672937#0 5670522 68668537#0 68668537#1 22902608#0 22902608#1 22902608#2 22902608#3 22902608#4 195743164#1 195743164#2 195743164#3 195743164#4 195743164#5 68668526 194923764#0 -5672621#12 25162679#0"/>
    </vehicle>
    <vehicle id="28" depart="12.20">
        <route edges="5672604#0 -5672621#9 -5672621#8 -5672621#7 -5672621#6 -5672621#5 -5672621#4 -5672621#3 -5672621#2 -5672621#1 -5672621#0 199927849#1 199927849#0 195745916 68325065#2 68325065#1 68325065#0 195743130#0 195743130#1-AddedOnRampEdge 195743130#1 221687794#0 46139048#0 46139048#1 46139048#2 46139048#3-AddedOnRampEdge 46139048#3 46139048#4"/>
    </vehicle>
    <vehicle id="29" depart="12.60">
        <route edges="118714476#3 5670719#0 46481095#3 46481095#4 46481095#5 46481095#6 22904150 22904149 194923799#0 194923799#1 34625464#0 34625464#1 34625464#2 34625464#3 34625464#4 34625464#5 34625464#6 34625464#7 34625464#8 34625464#9 22909136 22897720 5672800 22909247 46431821#0 95181768#3 95181768#4 95181768#5 95181768#6 95181768#7 95181768#8 95181768#9 95181768#10 95181768#11 95181768#12 95181768#13 95181768#14 95181768#15 95181768#16 95181768#17 95181772#0 22927463#0 22927463#1 22927463#2 -95181771#3 -95181771#2 -95181771#1 -95181771#0 -22897851#18 -22897851#17 46139033#3 46139033#4 46139033#5 256902829 68675820#0 68675820#1 68675820#2 46171883 68668562#0 68668562#1 68668562#2 68668562#3 46171887#0 222299268#2 222299254#1"/>
    </vehicle>
    <vehicle id="30" depart="13.00">
        <route edges="34080174#1 34080174#2 34080174#3 34080174#4 167923357 5670731#0 5670731#1 5670731#2 5670924#1 5670924#2 5669742#0 5669742#1 5669742#2 5669742#3 5669742#4 5669742#5 68668558#0 68668558#1 -46582969#1 -46582969#0 5672198#1 5672198#0 5672203 5670594#0 5670594#1 5670594#2 5670594#3 5670594#4 40709921#1 40709921#2 112116236 112116234#0 112116234#1 165777195#0 165777195#1 68668546#12 -166038132#1 -166038132#0 166038145 -46154283 46154282 -110777345#2 -110777345#1 -110777345#0 -195745911#1 -195745911#0 -46154291"/>
    </vehicle>
    <vehicle id="31" depart="13.40">
        <route edges="46139048#4 46139048#5 5673124#0 5673424#1 224671408 5670652 110777346#0 110777346#0-AddedOffRampEdge 110777346#1 110777346#2 110777346#3 221687791#0 221687791#1 221687791#2 221687791#3 221687791#4 165777194#1 165777194#0 165777255 165777635#2 165777635#1 165777951#4 165777951#3 165777951#2 165777951#1 165777951#0 165781913#0 165781913#1 46582969#0 46582969#1 5672178#0 5672178#1 5672176#0 5672176#1 5672176#2 5672176#3 5672176#4 34080149#0 34080149#1 -68668537#1 -68668537#0 -5670522 5672937#0 5672937#1 5672937#2 5672937#3 5672937#4 5672937#5 -5671620#3 -5671620#2 -5671620#0 -116672333#8 196117090#9 196117090#10 196117090#11 196117090#12 196117090#13 196117090#14 196117090#15 196117090#16 68668519#0 68668519#1 68668519#2 68668519#3 5670600#2"/>
    </vehicle>
    <vehicle id="32" depart="13.80">
        <route edges="196117074#1 5670451#0 46610728#1 5671261#3 -194923791 -196117074#1 -196117074#0 -196117073 -5672434 5670924#0 5670924#1 5670924#2 195743164#1 195743164#2 195743164#3 195743164#4 118400726#0 118400726#1 118400726#2 118400726#3 5669962#6 5669962#7 195743554#10"/>
    </vehicle>
    <vehicle id="33" depart="14.20">
        <route edges="36806909 46482821#0 36801355#0 46482541 36801165#1 36801165#2 36801165#3 36801165#4 46481744#0 46481744#1 46481744#2 95181774 194926849 46481095#0 46481095#1 46481095#2 46481095#3 46481095#4 46481095#5 46481095#6 22904150 22904149 194923799#0 194923799#1 34625464#0 34625464#1 194923794#0 194923794#1 127693200#0 127693200#1 226041041"/>
    </vehicle>
    <vehicle id="34" depart="14.60">
        <route edges="-194923755#0 -46201655#2 33804446#11 194923755#0 194923755#1 32938997 -194923765 -68668521#2 -68668521#0 -194926839#0 -5671620#6 -5671620#5 -5671620#4 -5671620#3 -5671620#2 -5671620#0 -116672333#8 196117090#9 196117090#10 196117090#11 196117090#12 196117090#13 196117090#14 5669669#2 5670836#1 5670719#7"/>
    </vehicle>
    <vehicle id="35" depart="15.00">
        <route edges="5669669#0 46581216#2 46581216#3 46581216#4 167923358#0 167923358#1 167923358#2 22898643#0 22898643#1 34080174#0 34080174#1 34080174#2 34080174#3 34080174#4 167923357 5670731#0 5670731#1 5670731#2 5670924#1 5670924#2 195743164#1 34080149#0 34080149#1 -68668537#1 -68668537#0"/>
    </vehicle>
    <vehicle id="36" depart="15.40">
        <route edges="5670651#0-AddedOffRampEdge 5670651#1 5673089#0 5673089#1 5673089#2 5673089#3 5669742#6 5669742#7 5669742#8 5669742#9 5669742#10 5669742#11 5669742#12 5669742#13 5669742#15 5669742#16 5669742#17 5669742#18 5669742#19 5669742#20 -22897851#8 -22897851#7 -22897851#6 -22897851#5 5672409#2 5672409#3 5672329"/>
    </vehicle>
    <vehicle id="37" depart="15.80">
        <route edges="32936741#0 32936741#0-AddedOffRampEdge 32936245#0 32936245#1 -32937066#0 -46211851#5 -46211851#4 -46211851#3 -46211851#2 -46211851#1 -46211851#0 -194923764#2 -194923764#1 -5672621#12 -5672621#11 -5672621#10 -5672621#9 -5672621#8 -5672621#7 -5672621#6 -5672621#5 -5672621#4 -5672621#3 -5672621#2 -5672621#1 -5672621#0 199927849#1 199927849#0 195745916 68325065#2 68325065#1 68325065#0 195743130#0 195743130#1-AddedOnRampEdge 195743130#1 221687794#0 221687791#1 221687791#2 221687791#3 -166038132#3 -166038132#2 -166038132#1 -166038132#0 166038145 166038501 240449807#0 240449807#1 22897851#1 22897851#2 22897851#3 22897851#4 5672409#2 5672409#3 5672329 125436141#3"/>
    </vehicle>
    <vehicle id="38" depart="16.20">
        <route edges="46201646#0 46201646#0-AddedOffRampEdge 32938060 32939005 -5672991#8 -5672991#7 169267542#6 169267542#7 169267542#8 169267542#9 169267542#10 169267542#11 46469729 157014137#0 157014137#1 157014137#2 157014137#3 118400729#0 118400729#1 118400729#2 118400729#3 118400729#4 222299248#0 222299248#1 222299248#2 222299248#3 222299248#4 222299248#5 157014136#0 157014136#1 157014136#2 157014136#3 157014136#4 157014136#5 157014136#6 157014136#7 157014136#8 118400726#0 118400726#1 118400726#2 118400726#3 118400726#4 118400726#5 118400726#6 118400726#7 118400726#8 118400726#9 118400726#10 118400726#11 118400726#12 118400726#13 195743318 5673047#7-AddedOnRampEdge 5673047#7 5673047#5 5673047#4 5673047#3 5673047#2 5673047#1 5673047#0 5669742#15 5669742#16 5669742#17 46348767#2 46348767#3 46348767#4 46348767#5 5671291#0 5671291#1 256902825 46139033#1 46139033#2 46139033#3 46139033#4 46139033#5 256902829 68675820#0 68675820#1 68675820#2 46171883 68668562#0 68668562#1 68668562#2 68668562#3"/>
    </vehicle>
    <vehicle id="39" depart="16.60">
        <route edges="5669742#8 5669742#9 5673093#0 46139037#9 46139037#10 68668558#1 46582977 5670782 5671774#0 5671774#1 5671774#2 5671774#3 5671774#4 5671774#5 5671774#6 5671774#8 5671774#9 5671774#10 5671774#11 5671774#12 5671774#13 5671774#14 5671774#15 5671774#16 5671774#17 221157083#0 221157083#1 221157083#2 221157083#3 221157083#4 221157083#5 221157083#6 221157083#7 221157083#8 221157083#9 221157083#10 221157083#11 221157083#12 221157083#13 221157083#14 221157083#15 221157083#16 221157083#17 221157083#18 221157083#19 221157083#20 221157083#21 221157083#22 221157083#23 221157083#24 221157083#25 221157083#26 221157083#27 221157083#28 221157083#29 221157083#30 221157083#31 221157083#32 5671129#5 5671129#6"/>
    </vehicle>
    <vehicle id="40" depart="17.00">
        <route edges="195743226#20 195743226#21 5670896#1 5670896#2 116672642#0 116672642#1 116672642#2 5673342#0 5673342#1 46139034#0 46139034#1 46139034#2 46139034#3 46139034#4 46139034#5 46139033#0 46139033#1 46139033#2 -22897851#16 -22897851#15 -22897851#14 -22897851#13 -22897851#12 -22897851#11 -22897851#10 -22897851#9 -22897851#8 -22897851#7 46139039#0 46139039#1 46139039#2 46139039#3 46139039#4 46139039#5 194923776#0 194923776#1 194923776#2 194923776#3 194923776#4 194923776#5 194923776#6 46116314 127691875 25564368#0 25564368#1 5669636 122660459 122660460 46116203 46177152"/>
    </vehicle>
    <vehicle id="41" depart="17.40">
        <route edges="167922071#7 167922071#8 167922071#9 167922070 195743344#0 195743344#1 195743344#2 195743344#3 195743344#4 195743344#5 195743344#6 5670803#0 5670803#1 195743190 68668556 226041020 226041019 46581216#1 46581216#2 46581216#3 46581216#4 167923358#0 167923358#1 167923358#2 22898643#0 22898643#1 34080174#0 34080174#1 34080174#2 34080174#3 34080174#4 167923357 5670731#0 5670731#1 5670731#2 5670924#1 5670924#2 5669742#0 5669742#1 5669742#2 5669742#3 5669742#4 5669742#5 68668558#0 68668558#1 -46582969#1 -46582969#0 5672198#1 5672198#0 5672203 5670594#0 5670594#1 5670594#2 5670594#3 5670594#4 40709921#1 40709921#2 112116236 112116234#0 112116234#1 165777195#0 165777195#1 165777195#2 165777195#3 165777195#4 165775865#3 165775865#4 165775865#5 165775865#6 165775306 222299242#0 5670092#14 -42786502 -194923783#2 -194923783#1 -5671717#1 -5671717#0 5671204#0 5671204#1 165731797#0 194923778#0 194923778#1 194923778#2 -195743199#12 38605246#1 38605247 226193930#0 226193930#1 226193930#2 226193930#3"/>
    </vehicle>
    <vehicle id="42" depart="17.80">
        <route edges="46522162#4 46522162#5 46522162#6 169267541#0 169267541#1 169267542#0 169267542#1 169267542#2 169267542#3 169267542#4 169267542#5 169267542#6 169267542#7 169267542#8 169267542#9 169267542#10 169267542#11 46469729 157014137#0 157014137#1 157014137#2 157014137#3 118400729#0 118400729#1 118400729#2 118400729#3 118400729#4 222299248#0 222299248#1 222299248#2 222299248#3 222299248#4 222299248#5 157014136#0 157014136#1 157014136#2 157014136#3 157014136#4 157014136#5 157014136#6 157014136#7 157014136#8 118400726#0 118400726#1 118400726#2 118400726#3 118400726#4 118400726#5 118400726#6 118400726#7 118400726#8 118400726#9 118400726#10 118400726#11 118400726#12 118400726#13 5671083 -195743157 -46139043#3 -46139043#2 -46139043#1 -166038132#3 -166038132#2 -166038132#1 -166038132#0 166038145 -46154283 46154282 -110777345#2 -110777345#1 46139048#4 46139048#5 5673124#0 5673124#1 5673124#2 195743191#0 195743191#1 5670578#7"/>
    </vehicle>
    <vehicle id="43" depart="18.20">
        <route edges="5673047#7-AddedOnRampEdge 5673047#7 5673047#5 5673047#4 5673047#3 5673047#2 5673047#1 5673047#0 5671608#0 5671608#1 5671608#2 5671608#3 5671608#4 5671608#5 5671608#6 5671608#7 46139045#0 46139045#1 46139045#2 46139045#3 46139045#4 46139045#5"/>
    </vehicle>
    <vehicle id="47" depart="19.80">
        <route edges="46522007#3 46522007#4 46520921#2 5670225#2 5670225#3 5670225#4 5670225#5 5670225#6 196117039#19 196117039#20 196117039#21 196117039#22 5672991#5 5672991#6 169267542#6 169267542#7 169267542#8 169267542#9 169267542#10 169267542#11 46469729 157014137#0 157014137#1 46334596 46334595#0 46334595#1 46334595#2 34769546 194926840 46201647#0 134485639 32937832 32937063#1 33117933#0-AddedOnRampEdge 33117933#0 33117933#1-AddedOnRampEdge 33117933#1 33117933#2 46201653"/>
    </vehicle>
    <vehicle id="48" depart="20.20">
        <route edges="68674962#31 68674962#32 68674962#33 68674962#34 68674962#35 68674962#36 68674962#37 68674962#38 68674962#39 68674962#40 68674962#41 68674962#42 68674962#43 68674962#44 68674962#45 68674962#46 68674962#47 68674962#48 68674962#49 22916381 44165032 44165031 44165027#2 68674968#0 68674968#1 68674968#2 68674968#3 68674968#4 68674965#0 68674965#1 -196117051#6 -196117051#5 -196117051#4 -196117051#3 -196117051#2 -196117051#1 -196117051#0 -5672937#7 -5672937#6 -5672937#5 -5672937#4 -5672937#3 -5672937#2 -5672937#1 -5672937#0 5670522 68668537#0 68668537#1 22902608#0 22902608#1 22902608#2 22902608#3 22902608#4 5669742#0 5669742#1 5669742#2 5669742#3 5669742#4 5669742#5 5669742#6 5669742#7 5669742#8 5669742#9 5669742#10 5669742#11 5669742#12 5669742#13 5669742#15 5669742#16 5669742#17 5669742#18 5669742#19 5669742#20 -22897851#8 -22897851#7 46139039#0 5671480#6 125436141#4 22897851#6"/>
    </vehicle>
    <vehicle id="49" depart="20.60">
        <route edges="-195743554#7 46582968#4 5672851#7 5672851#8 5672851#9 5672851#10 5672851#11 5672851#12 5672851#13 -195743164#5 -195743164#4 -195743164#3 -195743164#2 -195743164#1 -5670924#2 -5670924#1 -5670924#0 5672434 196117090#0 196117090#1 196117090#2 196117090#3 196117090#4 196117090#5 196117090#6 196117090#7 196117090#8 116672333#8 5671620#0 5671620#2"/>
    </vehicle>
    <vehicle id="50" depart="21.00">
        <route edges="95181774 194926849 46481095#0 46481095#1 46481095#2 46481095#3 46481095#4 46481095#5 46481095#6 22904150 22904149 194923799#0 194923799#1 34625464#0 34625464#1 34625464#2 34625464#3 34625464#4 34625464#5 34625464#6 34625464#7 34625464#8 34625464#9 22909136 -196117075#2 -196117075#1 -196117075#0 -194923791 -196117074#1 -196117074#0 196117091#0 196117091#1 196117091#2 -195743555#2 -195743555#1 -195743555#0 -5670087#1 -5670087#0 5670651#0 5670651#0-AddedOffRampEdge 5670651#1 68674966#0 68674966#1 50584835#0 50584835#1 5670172#0 5670172#1 25199883#1 25199883#2 5673614#2"/>
    </vehicle>
    <vehicle id="51" depart="21.40">
        <route edges="5670466#1 196117039#41 -5671620#4 5672937#6 5672937#7 196117051#0 196117051#1 196117051#2 196117051#3 196117051#4 196117051#5 196117051#6 5673380#0 5673380#1 68674961#0 68674961#1 68674961#2 68674961#3 68674961#4 68674961#5 44165030 44165029#1 44165033 46521465 46240204#0 46240204#1 46240204#2 46240204#3 46240204#4 46240204#5 46240204#6 46240204#7 46240204#8 46240204#9 46240204#10 46240204#11 46240204#12 46240204#13 46240204#14 46240204#15 46240204#16 46240204#17 46240204#18 46240204#19 46240204#20 46240204#21 46240204#22 46240204#23 46240204#24 46240204#25 46240204#26 46240204#27 46240204#28 46240204#29 46240204#30 46240204#31"/>
    </vehicle>
    <vehicle id="52" depart="21.80">
        <route edges="-5670600#0 195743343#0 195743343#1 195743343#2 195743343#3 195743343#4 195743343#5 195743343#6 195743343#7 68668552#0 68668552#1 5672965#0 5672965#1 -116672333#8 -116672333#7 5670836#7 5670836#8 5670836#9 5670836#10 5670836#11 5670836#12 5670836#13 5670836#14 5670836#15 196117091#0 196117091#1 196117091#2 5669953#0 5669953#1 5669953#2 5672073#2 5672073#3 5672073#4 46431822#0 46171876#13 46171876#14"/>
    </vehicle>
    <vehicle id="53" depart="22.20">
        <route edges="195743341#2 5671668#0 5671668#1 195743555#3 195743555#4 195743555#5 5672535#0 5672535#1 127693384#1 22916321 5673622 5672681#0 5672681#1 5672681#2 5672681#3 5672681#4 5672681#5 -22909247"/>
    </vehicle>
    <vehicle id="54" depart="22.60">
        <route edges="-5672937#5 -5672937#4 -5672937#3 -5672937#2 -5672937#1 -5672937#0 5670522 68668537#0 68668537#1 22902608#0 22902608#1 22902608#2 22902608#3 22902608#4 5669742#0 5669742#1 5669742#2 5669742#3 5669742#4 5669742#5 68668558#0 68668558#1 -46582969#1 -46582969#0 5672198#1 5672198#0 5672203 5670594#0 5670594#1 5670594#2 5670594#3 5670594#4 40709921#1 40709921#2 112116236 112116234#0 112116234#1 165777195#0 165777195#1 165777195#2 165777195#3 165777195#4 165775865#3 165775865#4 165775865#5 165775865#6 165775306 222299242#0 5670092#14 -42786502 -194923783#2 -194923783#1 -5671717#1 -5671717#0 5671204#0 5671204#1 25562079#0 25562079#1 32922459 46224855 46177182 32935109"/>
    </vehicle>
    <vehicle id="55" depart="23.00">
        <route edges="196117090#2 196117090#3 194923795#4 5670551#0 167923357 5670731#0 5670731#1 5670731#2 5670924#1 5670924#2 5669742#0 5669742#1 5669742#2 5669742#3 5669742#4 5669742#5 68668558#0 68668558#1 -46582969#1 -46582969#0 5672198#1 5672198#0 5672203 5670594#0 5670594#1 5670594#2 5670594#3 5670594#4 40709921#1 40709921#2 112116236 112116234#0 112116234#1 5669892#0 5669892#1 5669892#2 5669892#3"/>
    </vehicle>
    <vehicle id="58" depart="24.20">