<?xml version="1.0" encoding="UTF-8"?>

<!-- generated on Thu Jul 17 13:00:00 2014 by SUMO polyconvert Version 0.17.1
<?xml version="1.0" encoding="UTF-8"?>

<configuration xmlns:xsi="http://www.w3.org/2001/XMLSchema-instance" xsi:noNamespaceSchemaLocation="http://sumo.sf.net/xsd/polyconvertConfiguration.xsd">

    <input>
        <net-file value="/home/pierpaolo/Scrivania/scriptMirco/scriptMirco/facilitatore/v0.4/v0.4/net/Newyork3/Newyork3.net.xml"/>
        <osm-files value="/home/pierpaolo/Scrivania/scriptMirco/scriptMirco/facilitatore/v0.4/v0.4/Newyork3.osm"/>
        <type-file value="requiredFiles/typemap_example.xml"/>
    </input>

    <output>
        <output-file value="/home/pierpaolo/Scrivania/scriptMirco/scriptMirco/facilitatore/v0.4/v0.4/net/Newyork3/Newyork3.poly.xml"/>
    </output>

    <pruning>
        <prune.in-net value="true"/>
    </pruning>

    <report>
        <verbose value="true"/>
    </report>

</configuration>
-->

<shapes>
    <poly id="108159980" type="amenity" color="237,199,199" fill="1" layer="-1.00" shape="1251.66,3417.61 1275.41,3462.37 1186.84,3509.64 1214.54,3561.22 1429.21,3445.97 1361.70,3321.85 1310.79,3349.49 1325.99,3377.69 1251.66,3417.61"/>
    <poly id="108160358" type="amenity" color="237,199,199" fill="1" layer="-1.00" shape="1647.56,4431.36 1676.60,4485.18 1573.58,4540.36 1459.58,4601.41 1454.32,4591.67 1449.04,4581.89 1444.25,4573.03 1440.20,4565.52 1430.53,4547.59 1647.56,4431.36"/>
    <poly id="108160358#1" type="building" color="255,230,230" fill="1" layer="-1.00" shape="1647.56,4431.36 1676.60,4485.18 1573.58,4540.36 1459.58,4601.41 1454.32,4591.67 1449.04,4581.89 1444.25,4573.03 1440.20,4565.52 1430.53,4547.59 1647.56,4431.36"/>
    <poly id="109280421" type="building" color="255,230,230" fill="1" layer="-1.00" shape="2176.90,2951.69 2148.68,2899.49 2038.03,2959.23 2066.27,3011.48 2176.90,2951.69"/>
    <poly id="109280428" type="building" color="255,230,230" fill="1" layer="-1.00" shape="1925.07,2752.71 1942.73,2785.76 1965.50,2773.52 1975.82,2793.41 2018.32,2770.51 2021.30,2768.90 2066.95,2744.29 2038.99,2692.37 2038.57,2691.65 2012.76,2705.45 2015.15,2709.90 1953.07,2743.06 1950.84,2738.92 1925.07,2752.71"/>
    <poly id="109284794" type="building" color="255,230,230" fill="1" layer="-1.00" shape="2431.07,4991.84 2402.06,4938.39 2407.00,4935.58 2411.01,4942.53 2496.46,4896.64 2512.41,4926.12 2514.36,4929.71 2532.60,4919.92 2539.93,4933.46 2431.07,4991.84"/>
    <poly id="109284795" type="building" color="255,230,230" fill="1" layer="-1.00" shape="2695.92,4871.14 2702.64,4883.44 2710.89,4898.59 2717.75,4911.20 2721.73,4918.50 2724.49,4923.49 2663.19,4957.39 2633.72,4973.31 2606.17,4988.17 2599.13,4975.23 2604.76,4972.20 2589.66,4944.43 2583.90,4947.53 2577.23,4935.28 2634.34,4904.45 2695.92,4871.14"/>
    <poly id="109284804" type="building" color="255,230,230" fill="1" layer="-1.00" shape="2346.79,4672.87 2346.33,4672.07 2346.72,4671.84 2342.86,4664.87 2342.48,4665.09 2342.01,4664.29 2342.40,4664.07 2338.53,4657.09 2338.15,4657.31 2337.69,4656.52 2338.09,4656.29 2334.23,4649.33 2333.84,4649.56 2333.38,4648.76 2333.78,4648.52 2329.91,4641.55 2329.53,4641.77 2329.06,4640.97 2329.46,4640.75 2325.59,4633.77 2325.20,4633.99 2324.74,4633.20 2325.14,4632.97 2321.27,4626.01 2320.90,4626.21 2320.44,4625.42 2321.19,4624.98 2321.43,4625.39 2328.43,4621.54 2328.19,4621.15 2328.96,4620.70 2329.20,4621.11 2336.18,4617.26 2335.96,4616.87 2336.73,4616.44 2336.96,4616.84 2343.95,4612.99 2343.72,4612.59 2344.48,4612.15 2344.72,4612.57 2351.72,4608.71 2351.48,4608.32 2352.25,4607.87 2352.49,4608.28 2359.48,4604.43 2359.25,4604.04 2360.01,4603.60 2360.48,4604.39 2360.10,4604.62 2363.97,4611.59 2364.33,4611.37 2364.80,4612.17 2364.41,4612.40 2368.27,4619.36 2368.65,4619.14 2369.11,4619.94 2368.73,4620.16 2372.58,4627.11 2372.94,4626.91 2373.40,4627.70 2373.03,4627.92 2376.91,4634.89 2377.26,4634.68 2377.73,4635.48 2377.35,4635.71 2381.22,4642.68 2381.59,4642.46 2382.06,4643.25 2381.67,4643.48 2385.54,4650.44 2385.91,4650.24 2386.37,4651.03 2385.60,4651.48 2385.37,4651.08 2378.39,4654.92 2378.61,4655.30 2377.86,4655.75 2377.62,4655.35 2370.61,4659.21 2370.84,4659.60 2370.07,4660.03 2369.84,4659.63 2362.86,4663.48 2363.08,4663.86 2362.32,4664.31 2362.08,4663.91 2355.09,4667.75 2355.31,4668.15 2354.56,4668.59 2354.32,4668.18 2347.33,4672.03 2347.56,4672.42 2346.79,4672.87"/>
    <poly id="109284807" type="building" color="255,230,230" fill="1" layer="-1.00" shape="2725.38,4822.93 2723.33,4819.25 2720.58,4814.14 2709.44,4793.52 2706.74,4788.39 2704.71,4784.64 2726.88,4772.76 2724.73,4768.78 2732.31,4764.73 2731.06,4762.40 2785.44,4733.26 2786.70,4735.61 2793.60,4748.39 2795.10,4751.16 2784.31,4756.93 2792.51,4772.15 2803.17,4766.46 2804.66,4769.24 2811.54,4781.97 2812.80,4784.32 2758.41,4813.43 2732.50,4827.46 2726.97,4825.96 2725.38,4822.93"/>
    <poly id="109285745" type="building" color="255,230,230" fill="1" layer="-1.00" shape="1980.87,4406.70 1953.49,4355.49 1990.08,4335.80 2003.69,4394.51 1993.61,4400.00 1980.87,4406.70"/>
    <poly id="109294057" type="tourism" color="207,245,201" fill="1" layer="-2.00" shape="1608.19,2118.22 1672.04,2237.48 1684.97,2262.16 1715.13,2318.78 1796.55,2274.26 1803.75,2267.72 1806.90,2260.76 1803.31,2250.32 1784.71,2216.38 1749.69,2152.70 1742.92,2140.04 1733.32,2124.16 1721.56,2108.90 1708.84,2096.08 1696.20,2087.18 1687.39,2082.18 1680.56,2080.79 1673.31,2082.71 1608.19,2118.22"/>
    <poly id="113690621" type="tourism" color="207,245,201" fill="1" layer="-2.00" shape="2401.32,4480.55 2424.99,4469.35 2446.90,4511.98 2443.80,4514.04 2451.57,4529.34 2432.79,4538.34 2401.32,4480.55"/>
    <poly id="113690622" type="water" color="181,209,209" fill="1" layer="-4.00" shape="2471.67,4864.34 2493.37,4852.79 2477.56,4823.30 2455.86,4834.85 2471.67,4864.34"/>
    <poly id="113722987" type="leisure" color="207,245,201" fill="1" layer="-2.00" shape="2308.46,4184.54 2308.48,4182.97 2308.72,4181.39 2310.10,4179.83 2288.39,4138.75 2286.34,4139.18 2284.09,4138.24 2283.20,4136.88 2212.09,4175.99 2216.08,4184.15 2219.24,4184.19 2223.77,4184.92 2228.27,4187.00 2231.40,4190.42 2234.53,4193.85 2236.30,4197.70 2237.38,4202.22 2236.19,4206.94 2235.01,4210.99 2233.15,4215.26 2237.59,4223.20 2308.46,4184.54"/>
    <poly id="114071252" type="building" color="255,230,230" fill="1" layer="-1.00" shape="2711.88,3947.60 2684.19,3962.26 2687.16,3967.78 2690.10,3973.26 2693.04,3978.75 2695.98,3984.23 2704.82,4000.69 2707.76,4006.17 2710.70,4011.66 2713.65,4017.16 2741.14,4002.43 2711.88,3947.60"/>
    <poly id="114193930" type="building" color="255,230,230" fill="1" layer="-1.00" shape="2387.47,3655.44 2358.49,3601.95 2304.92,3631.52 2314.52,3649.10 2317.57,3647.27 2327.34,3665.20 2317.58,3670.44 2326.10,3686.10 2326.66,3687.11 2387.47,3655.44"/>
    <poly id="118116797" type="building" color="255,230,230" fill="1" layer="-1.00" shape="2801.93,4699.31 2775.34,4649.08 2776.22,4645.67 2828.89,4617.71 2830.18,4620.01 2830.93,4621.44 2833.28,4625.54 2838.48,4635.25 2840.74,4639.44 2846.66,4650.15 2848.95,4654.30 2854.51,4664.08 2856.98,4668.72 2857.63,4670.09 2858.58,4671.87 2805.33,4700.31 2801.93,4699.31"/>
    <poly id="118116797#1" type="shop" color="237,199,255" fill="1" layer="-1.00" shape="2801.93,4699.31 2775.34,4649.08 2776.22,4645.67 2828.89,4617.71 2830.18,4620.01 2830.93,4621.44 2833.28,4625.54 2838.48,4635.25 2840.74,4639.44 2846.66,4650.15 2848.95,4654.30 2854.51,4664.08 2856.98,4668.72 2857.63,4670.09 2858.58,4671.87 2805.33,4700.31 2801.93,4699.31"/>
    <poly id="118476502" type="building" color="255,230,230" fill="1" layer="-1.00" shape="2775.20,4916.84 2787.62,4939.47 2791.89,4937.14 2794.42,4941.76 2803.64,4958.53 2809.38,4969.05 2889.84,4925.21 2859.91,4870.69 2775.20,4916.84"/>
    <poly id="137707119" type="building" color="255,230,230" fill="1" layer="-1.00" shape="2361.51,5115.64 2353.28,5100.23 2356.38,5098.60 2346.49,5080.11 2343.40,5081.75 2335.35,5066.70 2360.89,5053.13 2408.60,5027.82 2416.76,5023.51 2425.10,5019.11 2443.55,5009.32 2447.51,5016.74 2465.69,5050.77 2469.70,5058.26 2451.25,5068.04 2443.13,5072.33 2434.76,5076.76 2387.04,5102.07 2361.51,5115.64"/>
    <poly id="137716320" type="building" color="255,230,230" fill="1" layer="-1.00" shape="2134.14,4693.23 2108.82,4644.89 2158.99,4618.75 2160.60,4621.85 2163.28,4626.96 2165.59,4631.39 2172.77,4645.14 2182.47,4640.06 2193.58,4661.20 2196.69,4667.30 2164.91,4683.89 2162.14,4678.61 2134.14,4693.23"/>
    <poly id="138022483" type="building" color="255,230,230" fill="1" layer="-1.00" shape="2662.44,4042.49 2667.03,4040.05 2667.84,4041.55 2683.08,4033.43 2698.37,4025.28 2713.65,4017.16 2710.70,4011.66 2707.76,4006.17 2704.82,4000.69 2695.98,3984.23 2693.04,3978.75 2690.10,3973.26 2687.16,3967.78 2684.19,3962.26 2668.93,3970.38 2653.68,3978.50 2638.30,3986.69 2633.39,3989.30 2633.74,3990.01 2641.10,4003.55 2635.33,4006.67 2622.92,4013.37 2616.76,4016.68 2610.25,4020.19 2618.43,4035.15 2624.86,4031.73 2631.06,4028.43 2649.60,4018.55 2662.44,4042.49"/>
    <poly id="138141251" type="building" color="255,230,230" fill="1" layer="-1.00" shape="1349.31,3812.63 1357.94,3808.15 1357.98,3806.28 1358.90,3797.30 1360.96,3788.29 1364.25,3780.35 1372.59,3780.43 1373.65,3782.50 1377.29,3775.18 1382.64,3767.87 1388.33,3761.96 1395.52,3756.28 1403.26,3751.77 1411.14,3748.51 1419.16,3746.36 1427.95,3745.22 1436.94,3745.31 1438.43,3745.44 1445.03,3736.87 1448.60,3737.53 1457.54,3740.20 1461.34,3741.90 1461.65,3752.39 1469.15,3756.96 1474.05,3748.90 1476.87,3750.94 1483.00,3755.38 1480.41,3758.96 1486.68,3765.51 1491.86,3772.76 1495.99,3780.44 1499.23,3788.83 1501.48,3798.28 1505.31,3797.75 1505.71,3805.87 1505.73,3809.64 1496.22,3809.24 1495.69,3817.81 1504.46,3822.83 1503.38,3827.90 1500.56,3836.48 1498.87,3840.30 1488.36,3840.07 1484.03,3846.89 1478.15,3853.87 1472.13,3859.34 1465.10,3864.22 1457.07,3868.31 1449.35,3871.02 1441.34,3872.72 1433.25,3873.41 1424.51,3873.01 1422.89,3872.80 1424.14,3875.86 1419.72,3881.79 1412.69,3880.40 1404.10,3877.52 1401.61,3876.34 1395.93,3873.63 1391.31,3870.85 1383.48,3875.21 1349.31,3812.63"/>
    <poly id="138141251#1" type="leisure" color="207,245,201" fill="1" layer="-2.00" shape="1349.31,3812.63 1357.94,3808.15 1357.98,3806.28 1358.90,3797.30 1360.96,3788.29 1364.25,3780.35 1372.59,3780.43 1373.65,3782.50 1377.29,3775.18 1382.64,3767.87 1388.33,3761.96 1395.52,3756.28 1403.26,3751.77 1411.14,3748.51 1419.16,3746.36 1427.95,3745.22 1436.94,3745.31 1438.43,3745.44 1445.03,3736.87 1448.60,3737.53 1457.54,3740.20 1461.34,3741.90 1461.65,3752.39 1469.15,3756.96 1474.05,3748.90 1476.87,3750.94 1483.00,3755.38 1480.41,3758.96 1486.68,3765.51 1491.86,3772.76 1495.99,3780.44 1499.23,3788.83 1501.48,3798.28 1505.31,3797.75 1505.71,3805.87 1505.73,3809.64 1496.22,3809.24 1495.69,3817.81 1504.46,3822.83 1503.38,3827.90 1500.56,3836.48 1498.87,3840.30 1488.36,3840.07 1484.03,3846.89 1478.15,3853.87 1472.13,3859.34 1465.10,3864.22 1457.07,3868.31 1449.35,3871.02 1441.34,3872.72 1433.25,3873.41 1424.51,3873.01 1422.89,3872.80 1424.14,3875.86 1419.72,3881.79 1412.69,3880.40 1404.10,3877.52 1401.61,3876.34 1395.93,3873.63 1391.31,3870.85 1383.48,3875.21 1349.31,3812.63"/>
    <poly id="138141251#2" type="sport" color="79,230,125" fill="1" layer="-2.00" shape="1349.31,3812.63 1357.94,3808.15 1357.98,3806.28 1358.90,3797.30 1360.96,3788.29 1364.25,3780.35 1372.59,3780.43 1373.65,3782.50 1377.29,3775.18 1382.64,3767.87 1388.33,3761.96 1395.52,3756.28 1403.26,3751.77 1411.14,3748.51 1419.16,3746.36 1427.95,3745.22 1436.94,3745.31 1438.43,3745.44 1445.03,3736.87 1448.60,3737.53 1457.54,3740.20 1461.34,3741.90 1461.65,3752.39 1469.15,3756.96 1474.05,3748.90 1476.87,3750.94 1483.00,3755.38 1480.41,3758.96 1486.68,3765.51 1491.86,3772.76 1495.99,3780.44 1499.23,3788.83 1501.48,3798.28 1505.31,3797.75 1505.71,3805.87 1505.73,3809.64 1496.22,3809.24 1495.69,3817.81 1504.46,3822.83 1503.38,3827.90 1500.56,3836.48 1498.87,3840.30 1488.36,3840.07 1484.03,3846.89 1478.15,3853.87 1472.13,3859.34 1465.10,3864.22 1457.07,3868.31 1449.35,3871.02 1441.34,3872.72 1433.25,3873.41 1424.51,3873.01 1422.89,3872.80 1424.14,3875.86 1419.72,3881.79 1412.69,3880.40 1404.10,3877.52 1401.61,3876.34 1395.93,3873.63 1391.31,3870.85 1383.48,3875.21 1349.31,3812.63"/>
    <poly id="138141251#3" type="tourism" color="207,245,201" fill="1" layer="-2.00" shape="1349.31,3812.63 1357.94,3808.15 1357.98,3806.28 1358.90,3797.30 1360.96,3788.29 1364.25,3780.35 1372.59,3780.43 1373.65,3782.50 1377.29,3775.18 1382.64,3767.87 1388.33,3761.96 1395.52,3756.28 1403.26,3751.77 1411.14,3748.51 1419.16,3746.36 1427.95,3745.22 1436.94,3745.31 1438.43,3745.44 1445.03,3736.87 1448.60,3737.53 1457.54,3740.20 1461.34,3741.90 1461.65,3752.39 1469.15,3756.96 1474.05,3748.90 1476.87,3750.94 1483.00,3755.38 1480.41,3758.96 1486.68,3765.51 1491.86,3772.76 1495.99,3780.44 1499.23,3788.83 1501.48,3798.28 1505.31,3797.75 1505.71,3805.87 1505.73,3809.64 1496.22,3809.24 1495.69,3817.81 1504.46,3822.83 1503.38,3827.90 1500.56,3836.48 1498.87,3840.30 1488.36,3840.07 1484.03,3846.89 1478.15,3853.87 1472.13,3859.34 1465.10,3864.22 1457.07,3868.31 1449.35,3871.02 1441.34,3872.72 1433.25,3873.41 1424.51,3873.01 1422.89,3872.80 1424.14,3875.86 1419.72,3881.79 1412.69,3880.40 1404.10,3877.52 1401.61,3876.34 1395.93,3873.63 1391.31,3870.85 1383.48,3875.21 1349.31,3812.63"/>
    <poly id="138147416" type="building" color="255,230,230" fill="1" layer="-1.00" shape="1606.64,3884.12 1557.06,3910.72 1553.02,3903.26 1520.74,3920.59 1518.13,3915.76 1485.20,3933.42 1483.31,3929.94 1475.75,3933.99 1464.00,3912.24 1471.55,3908.19 1469.66,3904.69 1502.59,3887.03 1499.98,3882.20 1532.26,3864.87 1528.23,3857.41 1577.81,3830.81 1606.64,3884.12"/>
    <poly id="138147417" type="building" color="255,230,230" fill="1" layer="-1.00" shape="1531.84,3783.25 1509.18,3741.45 1483.00,3755.38 1480.41,3758.96 1486.68,3765.51 1491.86,3772.76 1495.99,3780.44 1499.23,3788.83 1501.48,3798.28 1505.31,3797.75 1531.84,3783.25"/>
    <poly id="143858914" type="building" color="255,230,230" fill="1" layer="-1.00" shape="1978.87,4805.73 1993.19,4832.10 1993.46,4832.60 1997.47,4840.00 2007.81,4859.06 2048.43,4837.06 2065.64,4827.68 2051.34,4801.32 2047.54,4803.37 2034.17,4810.76 2020.49,4818.06 2000.26,4829.03 1985.63,4802.07 1978.87,4805.73"/>
    <poly id="143858914#1" type="tourism" color="207,245,201" fill="1" layer="-2.00" shape="1978.87,4805.73 1993.19,4832.10 1993.46,4832.60 1997.47,4840.00 2007.81,4859.06 2048.43,4837.06 2065.64,4827.68 2051.34,4801.32 2047.54,4803.37 2034.17,4810.76 2020.49,4818.06 2000.26,4829.03 1985.63,4802.07 1978.87,4805.73"/>
    <poly id="145341302" type="building" color="255,230,230" fill="1" layer="-1.00" shape="2643.41,4720.18 2649.15,4731.21 2650.76,4730.33 2653.92,4735.99 2663.14,4752.85 2666.22,4758.66 2664.61,4759.54 2670.71,4770.72 2547.88,4837.78 2545.37,4833.24 2544.59,4831.79 2526.21,4841.85 2503.30,4799.96 2500.79,4795.27 2518.38,4785.60 2519.60,4787.97 2643.41,4720.18"/>
    <poly id="146028965" type="building" color="255,230,230" fill="1" layer="-1.00" shape="2469.70,5058.26 2465.69,5050.77 2447.51,5016.74 2443.55,5009.32 2496.31,4981.39 2500.28,4988.85 2504.67,4986.53 2503.07,4983.52 2549.14,4959.18 2570.54,4999.37 2524.44,5023.73 2522.77,5020.61 2518.36,5022.93 2522.35,5030.43 2469.70,5058.26"/>
    <poly id="146031971" type="building" color="255,230,230" fill="1" layer="-1.00" shape="2401.39,4915.83 2382.16,4926.14 2368.45,4900.78 2352.63,4909.28 2338.96,4883.99 2379.10,4862.46 2384.82,4873.04 2450.22,4837.95 2466.36,4867.81 2395.87,4905.63 2401.39,4915.83"/>
    <poly id="146395025" type="leisure" color="207,245,201" fill="1" layer="-2.00" shape="2796.32,2111.74 2817.78,2077.47 2785.75,2057.56 2764.28,2091.84 2796.32,2111.74"/>
    <poly id="146395064" type="leisure" color="207,245,201" fill="1" layer="-2.00" shape="2711.69,2150.72 2721.13,2136.06 2697.66,2121.04 2688.22,2135.70 2711.69,2150.72"/>
    <poly id="146395064#1" type="sport" color="79,230,125" fill="1" layer="-2.00" shape="2711.69,2150.72 2721.13,2136.06 2697.66,2121.04 2688.22,2135.70 2711.69,2150.72"/>
    <poly id="146396833" type="leisure" color="207,245,201" fill="1" layer="-2.00" shape="2680.89,1981.74 2696.68,1973.21 2683.07,1948.19 2667.28,1956.71 2680.89,1981.74"/>
    <poly id="146396833#1" type="sport" color="79,230,125" fill="1" layer="-2.00" shape="2680.89,1981.74 2696.68,1973.21 2683.07,1948.19 2667.28,1956.71 2680.89,1981.74"/>
    <poly id="146396843" type="leisure" color="207,245,201" fill="1" layer="-2.00" shape="2647.35,1999.63 2679.10,1982.43 2665.46,1957.44 2633.71,1974.65 2647.35,1999.63"/>
    <poly id="146396843#1" type="sport" color="79,230,125" fill="1" layer="-2.00" shape="2647.35,1999.63 2679.10,1982.43 2665.46,1957.44 2633.71,1974.65 2647.35,1999.63"/>
    <poly id="146967028" type="amenity" color="237,199,199" fill="1" layer="-1.00" shape="2793.52,2444.90 2723.23,2315.36 2896.21,2221.95 2966.48,2352.63 2793.52,2444.90"/>
    <poly id="148251193" type="building" color="255,230,230" fill="1" layer="-1.00" shape="2798.04,5035.56 2795.06,5037.13 2792.07,5038.68 2784.00,5042.93 2781.01,5044.53 2778.13,5046.15 2774.29,5039.60 2771.20,5041.24 2768.11,5042.87 2764.61,5036.30 2757.29,5022.62 2755.55,5019.37 2758.64,5017.73 2761.74,5016.09 2775.88,5008.59 2778.97,5006.96 2781.98,5005.32 2798.04,5035.56"/>
    <poly id="148457887" type="building" color="255,230,230" fill="1" layer="-1.00" shape="2552.47,4100.06 2549.30,4094.44 2539.37,4076.08 2537.05,4071.79 2524.85,4078.33 2512.51,4055.52 2578.31,4020.19 2605.91,4071.20 2552.47,4100.06"/>
    <poly id="156943046" type="building" color="255,230,230" fill="1" layer="-1.00" shape="2496.55,3399.72 2493.98,3398.98 2493.29,3398.81 2492.32,3398.54 2490.85,3403.79 2485.60,3402.32 2485.32,3403.32 2485.16,3403.91 2484.40,3406.57 2482.75,3406.09 2476.31,3404.27 2474.62,3403.80 2468.18,3401.98 2466.49,3401.51 2460.05,3399.69 2458.31,3399.21 2459.05,3396.63 2459.24,3395.96 2459.49,3395.05 2454.13,3393.56 2455.63,3388.23 2454.67,3387.96 2454.08,3387.79 2451.46,3387.05 2451.93,3385.37 2453.74,3378.94 2454.23,3377.25 2456.04,3370.82 2456.52,3369.15 2458.30,3362.72 2458.76,3361.06 2461.33,3361.79 2461.96,3361.95 2462.93,3362.22 2464.39,3356.98 2469.65,3358.44 2469.92,3357.49 2470.09,3356.87 2470.83,3354.25 2503.20,3337.12 2512.81,3354.74 2528.22,3382.77 2496.55,3399.72"/>
    <poly id="157835453" type="building" color="255,230,230" fill="1" layer="-1.00" shape="1961.71,4634.24 1964.08,4638.56 1966.92,4637.01 1970.85,4644.19 1968.04,4645.72 1966.30,4646.67 1968.98,4647.43 1973.30,4648.67 1985.28,4670.56 1983.37,4673.55 1981.38,4676.62 1984.19,4675.00 1989.68,4685.01 1994.03,4682.65 1992.79,4680.37 1998.33,4677.36 2000.16,4680.82 2001.91,4675.41 2025.32,4662.69 2030.41,4666.17 2032.46,4665.80 2064.87,4648.46 2068.80,4646.35 2042.45,4597.49 2038.77,4599.61 2036.31,4594.93 2039.09,4591.79 2035.58,4593.57 2001.20,4611.26 1996.93,4613.61 1999.10,4618.48 1977.03,4630.47 1971.55,4626.86 1972.36,4628.45 1961.71,4634.24"/>
    <poly id="158404390" type="building" color="255,230,230" fill="1" layer="-1.00" shape="1965.50,2773.52 1942.73,2785.76 1953.35,2805.52 1975.82,2793.41 1965.50,2773.52"/>
    <poly id="158413988" type="building" color="255,230,230" fill="1" layer="-1.00" shape="1876.47,2052.15 1872.93,2054.03 1856.59,2062.72 1846.00,2068.35 1824.56,2079.73 1813.96,2085.37 1797.63,2094.06 1794.09,2095.94 1759.79,2114.21 1756.56,2107.96 1763.64,2038.87 1767.18,2037.00 1783.54,2028.38 1794.16,2022.78 1815.58,2011.58 1826.17,2005.93 1842.49,1997.22 1846.06,1995.29 1847.92,1998.86 1855.48,2012.92 1867.05,2034.56 1874.58,2048.63 1876.47,2052.15"/>
    <poly id="158854338" type="building" color="255,230,230" fill="1" layer="-1.00" shape="1520.48,4656.64 1519.24,4654.25 1509.33,4635.68 1507.99,4633.29 1506.39,4630.31 1510.81,4627.95 1507.90,4622.31 1503.11,4613.44 1496.47,4601.19 1510.35,4593.71 1517.01,4605.99 1521.76,4614.72 1525.17,4621.57 1538.26,4614.03 1541.44,4619.75 1550.75,4637.12 1552.11,4639.71 1520.48,4656.64"/>
    <poly id="158858760" type="building" color="255,230,230" fill="1" layer="-1.00" shape="2107.92,3220.77 2101.32,3208.44 2095.81,3211.37 2091.17,3202.70 2104.79,3195.46 2109.43,3204.13 2118.00,3220.09 2122.23,3227.99 2111.96,3233.45 2106.46,3223.21 2105.77,3221.91 2107.92,3220.77"/>
    <poly id="159028631" type="tourism" color="207,245,201" fill="1" layer="-2.00" shape="2713.02,4718.71 2709.93,4712.97 2750.88,4691.11 2753.97,4696.84 2713.02,4718.71"/>
    <poly id="159837290" type="building" color="255,230,230" fill="1" layer="-1.00" shape="1895.76,4223.44 1889.39,4211.95 1932.59,4188.24 1939.15,4200.08 1943.29,4197.85 1959.09,4226.89 1955.19,4229.01 1961.55,4240.53 1918.35,4264.22 1911.83,4252.43 1907.58,4254.73 1891.75,4225.60 1895.76,4223.44"/>
    <poly id="159866208" type="building" color="255,230,230" fill="1" layer="-1.00" shape="1939.36,3520.06 1932.83,3508.04 1935.13,3506.91 1917.63,3474.92 1886.58,3491.91 1891.01,3526.47 1895.54,3526.10 1896.48,3533.36 1922.34,3529.68 1939.36,3520.06"/>
    <poly id="159871578" type="building" color="255,230,230" fill="1" layer="-1.00" shape="1996.88,3461.13 2016.88,3450.21 2021.52,3447.68 2023.44,3446.64 2034.17,3440.78 2037.10,3439.18 2036.23,3437.61 2024.97,3417.13 1984.84,3439.04 1986.75,3442.72 1991.42,3451.20 1995.89,3459.32 1996.88,3461.13"/>
    <poly id="159886327" type="building" color="255,230,230" fill="1" layer="-1.00" shape="1996.59,3605.07 1978.44,3614.78 1991.33,3638.68 1992.45,3640.77 1992.88,3641.58 2004.28,3635.44 2011.02,3631.83 2006.24,3622.96 1999.85,3611.12 1996.59,3605.07"/>
    <poly id="159912554" type="building" color="255,230,230" fill="1" layer="-1.00" shape="1461.94,4739.42 1463.71,4738.47 1461.19,4733.78 1459.42,4734.73 1454.34,4725.27 1435.36,4735.37 1441.93,4747.60 1440.16,4748.54 1442.30,4752.53 1444.07,4751.58 1447.60,4758.16 1445.83,4759.10 1447.95,4763.05 1449.72,4762.10 1454.94,4771.82 1463.46,4767.28 1466.21,4768.11 1467.46,4770.46 1474.01,4782.60 1471.97,4783.69 1474.46,4788.32 1495.55,4777.09 1488.90,4764.71 1489.20,4762.48 1496.77,4758.45 1497.78,4760.34 1511.18,4753.18 1500.82,4733.89 1484.72,4742.47 1483.88,4740.90 1479.45,4743.26 1481.45,4746.98 1469.29,4753.46 1466.79,4752.80 1464.03,4747.66 1465.85,4746.69 1461.94,4739.42"/>
    <poly id="159912559" type="building" color="255,230,230" fill="1" layer="-1.00" shape="1327.28,4836.45 1326.33,4834.70 1331.03,4832.18 1331.98,4833.93 1341.46,4828.83 1351.68,4847.70 1339.43,4854.29 1340.38,4856.04 1336.39,4858.18 1335.44,4856.43 1328.86,4859.97 1329.81,4861.73 1325.86,4863.85 1324.91,4862.09 1315.17,4867.33 1310.58,4858.85 1307.83,4858.03 1305.48,4859.29 1293.29,4865.83 1294.39,4867.85 1289.75,4870.35 1278.39,4849.39 1290.79,4842.72 1291.77,4840.70 1287.70,4833.18 1285.81,4834.19 1278.59,4820.86 1297.92,4810.47 1306.59,4826.47 1308.16,4825.63 1310.54,4830.03 1306.82,4832.03 1313.37,4844.13 1315.83,4844.95 1320.97,4842.19 1319.99,4840.38 1327.28,4836.45"/>
    <poly id="160905765" type="amenity" color="237,199,199" fill="1" layer="-1.00" shape="1818.00,5052.90 1788.46,4998.17 1828.44,4976.20 1858.08,5030.79 1818.00,5052.90"/>
    <poly id="160915057" type="building" color="255,230,230" fill="1" layer="-1.00" shape="2083.32,4085.26 2056.80,4099.53 2050.94,4088.71 2044.10,4076.16 2043.04,4074.18 2029.41,4049.08 2028.86,4048.05 2055.20,4033.87 2060.87,4044.18 2045.38,4052.49 2048.24,4057.77 2051.09,4063.03 2066.57,4054.71 2070.56,4061.84 2077.44,4074.36 2083.32,4085.26"/>
    <poly id="160963310" type="building" color="255,230,230" fill="1" layer="-1.00" shape="2080.51,2909.57 2037.55,2932.62 2034.63,2927.19 2027.97,2930.77 2019.05,2914.20 2031.41,2907.56 2040.20,2902.83 2053.37,2895.76 2068.65,2887.54 2077.56,2904.12 2080.51,2909.57"/>
    <poly id="160967737" type="building" color="255,230,230" fill="1" layer="-1.00" shape="1919.20,2727.33 1907.72,2705.72 1902.97,2708.23 1887.33,2716.46 1896.46,2733.63 1898.81,2738.08 1919.20,2727.33"/>
    <poly id="161173093" type="building" color="255,230,230" fill="1" layer="-1.00" shape="2633.53,4058.26 2662.44,4042.49 2649.60,4018.55 2631.06,4028.43 2624.86,4031.73 2618.43,4035.15 2630.42,4057.41 2633.53,4058.26"/>
    <poly id="161849936" type="building" color="255,230,230" fill="1" layer="-1.00" shape="2805.01,3872.16 2770.20,3890.62 2754.08,3899.49 2736.79,3908.92 2727.64,3891.29 2726.02,3888.28 2738.68,3880.48 2736.51,3876.55 2743.74,3850.78 2760.31,3841.79 2780.47,3830.93 2784.91,3817.87 2798.85,3844.24 2803.73,3853.49 2797.02,3857.03 2805.01,3872.16"/>
    <poly id="162004802" type="building" color="255,230,230" fill="1" layer="-1.00" shape="2292.91,4275.34 2298.76,4286.24 2303.72,4295.39 2307.38,4302.12 2263.38,4325.89 2251.44,4332.10 2237.12,4305.37 2292.91,4275.34"/>
    <poly id="162695595" type="building" color="255,230,230" fill="1" layer="-1.00" shape="2719.82,4433.77 2721.49,4432.85 2716.24,4423.06 2714.17,4419.16 2712.93,4416.85 2711.60,4414.36 2695.14,4423.10 2691.86,4417.03 2684.14,4421.16 2687.42,4427.23 2663.25,4440.07 2676.32,4464.44 2680.60,4462.13 2688.36,4458.01 2702.51,4450.53 2699.50,4444.60 2712.62,4437.61 2719.82,4433.77"/>
    <poly id="162747896" type="building" color="255,230,230" fill="1" layer="-1.00" shape="2719.37,5013.89 2717.13,5009.84 2713.18,5011.99 2711.01,5008.06 2707.07,5010.21 2702.90,5002.65 2692.48,4983.78 2688.50,4976.56 2692.47,4974.40 2690.29,4970.47 2694.10,4968.38 2691.93,4964.47 2699.63,4960.25 2707.17,4956.13 2714.31,4952.22 2722.20,4947.89 2723.54,4950.31 2725.36,4949.33 2726.06,4950.60 2746.78,4939.26 2755.72,4955.47 2758.89,4961.21 2746.62,4967.93 2746.80,4968.26 2757.96,4988.49 2749.64,4993.05 2750.36,4994.37 2748.57,4995.35 2749.65,4997.30 2741.75,5001.63 2734.27,5005.73 2727.08,5009.66 2719.37,5013.89"/>
    <poly id="162755456" type="building" color="255,230,230" fill="1" layer="-1.00" shape="2760.88,4928.06 2773.10,4921.43 2771.65,4918.76 2775.20,4916.84 2787.62,4939.47 2791.89,4937.14 2794.42,4941.76 2774.44,4952.71 2771.29,4946.97 2761.60,4929.36 2760.88,4928.06"/>
    <poly id="162755457" type="building" color="255,230,230" fill="1" layer="-1.00" shape="2746.62,4967.93 2758.89,4961.21 2774.44,4952.71 2794.42,4941.76 2803.64,4958.53 2809.38,4969.05 2761.67,4995.17 2757.96,4988.49 2746.80,4968.26 2746.62,4967.93"/>
    <poly id="162755458" type="building" color="255,230,230" fill="1" layer="-1.00" shape="2743.79,4933.81 2746.03,4937.86 2746.78,4939.26 2755.72,4955.47 2758.89,4961.21 2774.44,4952.71 2771.29,4946.97 2761.60,4929.36 2760.88,4928.06 2759.36,4925.31 2751.85,4929.41 2743.79,4933.81"/>
    <poly id="162755458#1" type="tourism" color="207,245,201" fill="1" layer="-2.00" shape="2743.79,4933.81 2746.03,4937.86 2746.78,4939.26 2755.72,4955.47 2758.89,4961.21 2774.44,4952.71 2771.29,4946.97 2761.60,4929.36 2760.88,4928.06 2759.36,4925.31 2751.85,4929.41 2743.79,4933.81"/>
    <poly id="162977896" type="building" color="255,230,230" fill="1" layer="-1.00" shape="2368.61,4021.55 2364.97,4014.98 2364.38,4013.92 2366.69,4012.66 2366.25,4011.86 2368.10,4010.85 2367.73,4010.19 2369.63,4009.15 2368.80,4007.66 2374.50,4003.76 2380.05,4000.31 2385.36,3997.06 2386.98,3999.96 2389.68,3998.49 2394.30,4006.93 2368.61,4021.55"/>
    <poly id="162977911" type="parking" color="184,184,179" fill="1" layer="-1.00" shape="2316.12,4015.36 2299.73,4024.15 2289.82,4029.52 2304.16,4055.29 2330.26,4041.55 2316.12,4015.36"/>
    <poly id="163465869" type="building" color="255,230,230" fill="1" layer="-1.00" shape="2308.43,4731.26 2303.60,4722.50 2281.43,4734.36 2292.44,4754.61 2298.14,4751.47 2300.98,4756.74 2308.69,4770.90 2315.10,4782.93 2372.51,4752.22 2367.55,4743.03 2404.49,4723.27 2388.24,4693.10 2406.26,4683.39 2399.08,4670.12 2358.76,4692.49 2362.18,4699.44 2311.10,4726.75 2312.39,4729.14 2308.43,4731.26"/>
    <poly id="163470962" type="water" color="181,209,209" fill="1" layer="-4.00" shape="2521.24,4921.28 2512.41,4926.12 2496.46,4896.64 2505.16,4891.83 2521.24,4921.28"/>
    <poly id="163474780" type="building" color="255,230,230" fill="1" layer="-1.00" shape="2075.44,4665.68 2078.84,4678.48 2073.79,4680.98 2066.66,4685.24 2068.60,4688.93 2071.41,4687.33 2072.68,4686.71 2074.50,4686.11 2076.38,4685.81 2078.39,4685.81 2080.11,4686.10 2082.06,4686.73 2083.98,4687.77 2085.63,4689.10 2086.98,4690.64 2087.99,4692.26 2088.90,4694.60 2089.28,4696.77 2089.22,4699.18 2088.73,4701.37 2088.00,4703.12 2086.95,4704.82 2085.46,4706.47 2084.01,4707.60 2081.99,4708.88 2079.76,4710.02 2081.51,4713.34 2082.66,4712.73 2088.80,4709.55 2091.75,4723.92 2089.25,4725.15 2015.61,4763.93 2009.02,4751.51 2002.83,4754.68 1995.51,4741.02 1975.54,4751.81 1974.10,4749.14 1967.78,4737.44 1978.97,4731.39 1972.33,4719.18 2067.15,4668.47 2067.80,4669.88 2075.44,4665.68"/>
    <poly id="163474780#1" type="tourism" color="207,245,201" fill="1" layer="-2.00" shape="2075.44,4665.68 2078.84,4678.48 2073.79,4680.98 2066.66,4685.24 2068.60,4688.93 2071.41,4687.33 2072.68,4686.71 2074.50,4686.11 2076.38,4685.81 2078.39,4685.81 2080.11,4686.10 2082.06,4686.73 2083.98,4687.77 2085.63,4689.10 2086.98,4690.64 2087.99,4692.26 2088.90,4694.60 2089.28,4696.77 2089.22,4699.18 2088.73,4701.37 2088.00,4703.12 2086.95,4704.82 2085.46,4706.47 2084.01,4707.60 2081.99,4708.88 2079.76,4710.02 2081.51,4713.34 2082.66,4712.73 2088.80,4709.55 2091.75,4723.92 2089.25,4725.15 2015.61,4763.93 2009.02,4751.51 2002.83,4754.68 1995.51,4741.02 1975.54,4751.81 1974.10,4749.14 1967.78,4737.44 1978.97,4731.39 1972.33,4719.18 2067.15,4668.47 2067.80,4669.88 2075.44,4665.68"/>
    <poly id="163480139" type="building" color="255,230,230" fill="1" layer="-1.00" shape="1963.24,4952.60 1943.02,4915.36 1969.56,4901.27 1972.45,4907.15 1985.73,4931.91 1987.34,4934.89 1986.88,4935.14 1987.12,4935.58 1988.81,4938.73 1972.19,4947.89 1963.24,4952.60"/>