<?xml version="1.0" encoding="UTF-8"?>

<!-- generated on Wed Jul 16 18:33:45 2014 by SUMO netconvert Version 0.17.1
<?xml version="1.0" encoding="UTF-8"?>

<configuration xmlns:xsi="http://www.w3.org/2001/XMLSchema-instance" xsi:noNamespaceSchemaLocation="http://sumo.sf.net/xsd/netconvertConfiguration.xsd">

    <input>
        <osm-files value="/home/pierpaolo/Scrivania/scriptMirco/scriptMirco/facilitatore/v0.4/v0.4/Newyork1.osm"/>
    </input>

    <output>
        <output-file value="/home/pierpaolo/Scrivania/scriptMirco/scriptMirco/facilitatore/v0.4/v0.4/net/Newyork1/Newyork1.net.xml"/>
        <plain-output-prefix value="/home/pierpaolo/Scrivania/scriptMirco/scriptMirco/facilitatore/v0.4/v0.4/net/Newyork1/Newyork1"/>
    </output>

    <projection>
        <proj.utm value="true"/>
    </projection>

    <tls_building>
        <tls.join value="true"/>
    </tls_building>

    <ramp_guessing>
        <ramps.guess value="true"/>
    </ramp_guessing>

    <edge_removal>
        <remove-edges.by-vclass value="rail_slow,rail_fast,lightrail,cityrail,bicycle,pedestrian"/>
        <remove-edges.isolated value="true"/>
    </edge_removal>

    <processing>
        <no-turnarounds value="true"/>
        <no-turnarounds.tls value="true"/>
        <junctions.join value="true"/>
        <junctions.join-dist value="10"/>
    </processing>

    <report>
        <verbose value="true"/>
    </report>

</configuration>
-->

<net version="0.13" xmlns:xsi="http://www.w3.org/2001/XMLSchema-instance" xsi:noNamespaceSchemaLocation="http://sumo.sf.net/xsd/net_file.xsd">

    <location netOffset="-583538.13,-4507739.47" convBoundary="0.00,0.00,3913.32,5894.86" origBoundary="-74.044317,40.691901,-73.901051,40.811198" projParameter="+proj=utm +zone=18 +ellps=WGS84 +datum=WGS84 +units=m +no_defs"/>

    <edge id=":-195743555#5-AddedOnRampNode_0" function="internal">
        <lane id=":-195743555#5-AddedOnRampNode_0_0" index="0" speed="27.78" length="3.00" shape="729.39,2404.04 730.63,2401.31"/>
    </edge>
    <edge id=":-195743555#5-AddedOnRampNode_1" function="internal">
        <lane id=":-195743555#5-AddedOnRampNode_1_0" index="0" speed="27.78" length="3.00" shape="732.40,2405.40 733.64,2402.67"/>
    </edge>
    <edge id=":100522479_0" function="internal">
        <lane id=":100522479_0_0" index="0" speed="27.78" length="0.22" shape="2710.80,3918.57 2710.69,3918.39"/>
    </edge>
    <edge id=":100522479_1" function="internal">
        <lane id=":100522479_1_0" index="0" speed="27.78" length="0.67" shape="2713.71,3917.00 2713.35,3916.44"/>
    </edge>
    <edge id=":100522728_0" function="internal">
        <lane id=":100522728_0_0" index="0" speed="13.89" length="0.10" shape="2965.96,4350.92 2965.96,4350.92"/>
    </edge>
    <edge id=":100522741_0" function="internal">
        <lane id=":100522741_0_0" index="0" speed="27.78" length="0.10" shape="2928.47,4281.41 2928.47,4281.41"/>
    </edge>
    <edge id=":100522741_1" function="internal">
        <lane id=":100522741_1_0" index="0" speed="27.78" length="0.10" shape="2930.04,4284.32 2930.04,4284.32"/>
    </edge>
    <edge id=":1251605769_0" function="internal">
        <lane id=":1251605769_0_0" index="0" speed="27.78" length="0.14" shape="1690.52,2077.43 1690.40,2077.36"/>
    </edge>
    <edge id=":1251605769_1" function="internal">
        <lane id=":1251605769_1_0" index="0" speed="27.78" length="0.43" shape="1692.40,2074.72 1692.04,2074.49"/>
    </edge>
    <edge id=":1251612259_0" function="internal">
        <lane id=":1251612259_0_0" index="0" speed="13.89" length="0.10" shape="2252.78,2035.68 2252.78,2035.68"/>
    </edge>
    <edge id=":1251612266_0" function="internal">
        <lane id=":1251612266_0_0" index="0" speed="27.78" length="0.10" shape="2249.91,1951.34 2249.91,1951.34"/>
    </edge>
    <edge id=":1251612266_1" function="internal">
        <lane id=":1251612266_1_0" index="0" speed="27.78" length="0.10" shape="2252.81,1949.78 2252.81,1949.78"/>
    </edge>
    <edge id=":1251612266_2" function="internal">
        <lane id=":1251612266_2_0" index="0" speed="27.78" length="0.10" shape="2255.72,1948.21 2255.72,1948.21"/>
    </edge>
    <edge id=":1251612266_3" function="internal">
        <lane id=":1251612266_3_0" index="0" speed="27.78" length="0.10" shape="2258.63,1946.65 2258.63,1946.65"/>
    </edge>
    <edge id=":1251612286_0" function="internal">
        <lane id=":1251612286_0_0" index="0" speed="13.89" length="0.10" shape="2325.62,1996.22 2325.62,1996.22"/>
    </edge>
    <edge id=":1251830454_0" function="internal">
        <lane id=":1251830454_0_0" index="0" speed="13.89" length="0.10" shape="2024.12,2452.71 2024.12,2452.71"/>
    </edge>
    <edge id=":1251830468_0" function="internal">
        <lane id=":1251830468_0_0" index="0" speed="13.89" length="0.10" shape="2147.89,2387.67 2147.89,2387.65"/>
    </edge>
    <edge id=":1261680417_0" function="internal">
        <lane id=":1261680417_0_0" index="0" speed="13.89" length="0.10" shape="665.35,3144.60 665.35,3144.60"/>
    </edge>
    <edge id=":1261680422_0" function="internal">
        <lane id=":1261680422_0_0" index="0" speed="22.22" length="0.10" shape="523.43,2883.00 523.43,2883.00"/>
    </edge>
    <edge id=":1261680426_0" function="internal">
        <lane id=":1261680426_0_0" index="0" speed="22.22" length="0.10" shape="818.02,3426.02 818.02,3426.02"/>
    </edge>
    <edge id=":1261680429_0" function="internal">
        <lane id=":1261680429_0_0" index="0" speed="22.22" length="0.10" shape="594.39,3013.78 594.39,3013.78"/>
    </edge>
    <edge id=":1261680432_0" function="internal">
        <lane id=":1261680432_0_0" index="0" speed="27.78" length="0.32" shape="1041.23,3840.72 1041.50,3840.56"/>
    </edge>
    <edge id=":1261680432_1" function="internal">
        <lane id=":1261680432_1_0" index="0" speed="27.78" length="0.10" shape="1042.98,3843.52 1043.07,3843.46"/>
    </edge>
    <edge id=":1261680434_0" function="internal">
        <lane id=":1261680434_0_0" index="0" speed="22.22" length="0.10" shape="558.97,2948.49 558.97,2948.49"/>
    </edge>
    <edge id=":1261680442_0" function="internal">
        <lane id=":1261680442_0_0" index="0" speed="22.22" length="0.10" shape="855.71,3495.50 855.71,3495.50"/>
    </edge>
    <edge id=":1261680445_0" function="internal">
        <lane id=":1261680445_0_0" index="0" speed="22.22" length="0.10" shape="629.88,3079.21 629.88,3079.21"/>
    </edge>
    <edge id=":1261680449_0" function="internal">
        <lane id=":1261680449_0_0" index="0" speed="13.89" length="0.10" shape="700.75,3209.86 700.75,3209.86"/>
    </edge>
    <edge id=":1261680455_0" function="internal">
        <lane id=":1261680455_0_0" index="0" speed="22.22" length="0.10" shape="1005.47,3771.59 1005.47,3771.59"/>
    </edge>
    <edge id=":1261680457_0" function="internal">
        <lane id=":1261680457_0_0" index="0" speed="22.22" length="0.10" shape="738.26,3278.98 738.26,3278.98"/>
    </edge>
    <edge id=":1261680460_0" function="internal">
        <lane id=":1261680460_0_0" index="0" speed="22.22" length="0.10" shape="894.01,3566.09 894.01,3566.09"/>
    </edge>
    <edge id=":1261680467_0" function="internal">
        <lane id=":1261680467_0_0" index="0" speed="22.22" length="0.10" shape="968.94,3704.26 968.94,3704.26"/>
    </edge>
    <edge id=":1289222404_0" function="internal">
        <lane id=":1289222404_0_0" index="0" speed="22.22" length="0.10" shape="2283.00,4078.20 2283.00,4078.20"/>
    </edge>
    <edge id=":1289222416_0" function="internal">
        <lane id=":1289222416_0_0" index="0" speed="22.22" length="0.10" shape="2170.68,4138.74 2170.68,4138.74"/>
    </edge>
    <edge id=":1289222420_0" function="internal">
        <lane id=":1289222420_0_0" index="0" speed="27.78" length="0.10" shape="2363.11,4225.72 2363.11,4225.72"/>
    </edge>
    <edge id=":1289222420_1" function="internal">
        <lane id=":1289222420_1_0" index="0" speed="27.78" length="0.10" shape="2361.54,4222.82 2361.54,4222.82"/>
    </edge>
    <edge id=":1289222420_2" function="internal">
        <lane id=":1289222420_2_0" index="0" speed="27.78" length="0.10" shape="2358.41,4217.01 2358.41,4217.01"/>
    </edge>
    <edge id=":1289222420_3" function="internal">
        <lane id=":1289222420_3_0" index="0" speed="27.78" length="0.10" shape="2359.97,4219.91 2359.97,4219.91"/>
    </edge>
    <edge id=":1289222431_0" function="internal">
        <lane id=":1289222431_0_0" index="0" speed="27.78" length="0.10" shape="2249.72,4286.83 2249.72,4286.83"/>
    </edge>
    <edge id=":1289222431_1" function="internal">
        <lane id=":1289222431_1_0" index="0" speed="27.78" length="0.10" shape="2248.16,4283.93 2248.16,4283.93"/>
    </edge>
    <edge id=":1289222431_2" function="internal">
        <lane id=":1289222431_2_0" index="0" speed="27.78" length="0.10" shape="2245.03,4278.12 2245.03,4278.12"/>
    </edge>
    <edge id=":1289222431_3" function="internal">
        <lane id=":1289222431_3_0" index="0" speed="27.78" length="0.10" shape="2246.59,4281.03 2246.59,4281.03"/>
    </edge>
    <edge id=":1293174686_0" function="internal">
        <lane id=":1293174686_0_0" index="0" speed="22.22" length="4.34" shape="2912.80,3102.75 2908.90,3104.65"/>
    </edge>
    <edge id=":1293174686_1" function="internal">
        <lane id=":1293174686_1_0" index="0" speed="13.89" length="3.95" shape="2911.22,3099.86 2907.30,3100.38"/>
    </edge>
    <edge id=":1293174689_0" function="internal">
        <lane id=":1293174689_0_0" index="0" speed="22.22" length="4.26" shape="2796.89,2894.17 2800.55,2891.99"/>
    </edge>
    <edge id=":1293174689_1" function="internal">
        <lane id=":1293174689_1_0" index="0" speed="13.89" length="3.92" shape="2799.53,2897.84 2802.12,2894.89"/>
    </edge>
    <edge id=":1329098617_0" function="internal">
        <lane id=":1329098617_0_0" index="0" speed="22.22" length="0.10" shape="1902.55,3844.88 1902.55,3844.88"/>
    </edge>
    <edge id=":1329098617_1" function="internal">
        <lane id=":1329098617_1_0" index="0" speed="22.22" length="0.10" shape="1900.99,3841.98 1900.99,3841.98"/>
    </edge>
    <edge id=":1329098617_2" function="internal">
        <lane id=":1329098617_2_0" index="0" speed="22.22" length="0.10" shape="1899.42,3839.08 1899.42,3839.07"/>
    </edge>
    <edge id=":1533280147_0" function="internal">
        <lane id=":1533280147_0_0" index="0" speed="27.78" length="3.65" shape="1103.99,4241.36 1100.95,4239.33"/>
    </edge>
    <edge id=":1533280147_1" function="internal">
        <lane id=":1533280147_1_0" index="0" speed="27.78" length="3.14" shape="1106.58,4239.23 1103.82,4237.71"/>
    </edge>
    <edge id=":1533280147_2" function="internal">
        <lane id=":1533280147_2_0" index="0" speed="27.78" length="5.43" shape="1109.58,4234.47 1106.74,4239.10"/>
    </edge>
    <edge id=":1632878994_0" function="internal">
        <lane id=":1632878994_0_0" index="0" speed="27.78" length="0.10" shape="2907.70,2675.62 2907.70,2675.62"/>
    </edge>
    <edge id=":1632878994_1" function="internal">
        <lane id=":1632878994_1_0" index="0" speed="27.78" length="0.10" shape="2904.80,2677.19 2904.80,2677.19"/>
    </edge>
    <edge id=":1692450029_0" function="internal">
        <lane id=":1692450029_0_0" index="0" speed="20.83" length="5.00" shape="2428.02,2282.01 2427.20,2280.91 2426.23,2280.33 2425.10,2280.28 2423.81,2280.75"/>
    </edge>
    <edge id=":1692450029_1" function="internal">
        <lane id=":1692450029_1_0" index="0" speed="27.78" length="6.22" shape="2428.02,2282.01 2425.07,2276.53"/>
    </edge>
    <edge id=":1692450029_2" function="internal">
        <lane id=":1692450029_2_0" index="0" speed="27.78" length="6.21" shape="2430.92,2280.44 2427.97,2274.97"/>
    </edge>
    <edge id=":1692450029_3" function="internal">
        <lane id=":1692450029_3_0" index="0" speed="27.78" length="6.21" shape="2433.82,2278.87 2430.88,2273.41"/>
    </edge>
    <edge id=":1692450029_4" function="internal">
        <lane id=":1692450029_4_0" index="0" speed="27.78" length="6.20" shape="2436.73,2277.31 2433.79,2271.85"/>
    </edge>
    <edge id=":1692450029_5" function="internal">
        <lane id=":1692450029_5_0" index="0" speed="13.89" length="16.10" shape="2437.99,2273.10 2434.54,2274.97 2430.90,2276.93 2427.27,2278.89 2423.81,2280.75"/>
    </edge>
    <edge id=":1692450029_6" function="internal">
        <lane id=":1692450029_6_0" index="0" speed="20.83" length="3.12" shape="2437.99,2273.10 2435.43,2274.26 2435.13,2274.33"/>
    </edge>
    <edge id=":1692450029_8" function="internal">
        <lane id=":1692450029_8_0" index="0" speed="20.83" length="4.73" shape="2435.13,2274.33 2433.39,2274.70 2431.88,2274.42 2430.88,2273.41"/>
    </edge>
    <edge id=":1692450029_7" function="internal">
        <lane id=":1692450029_7_0" index="0" speed="20.83" length="5.00" shape="2437.99,2273.10 2436.70,2273.58 2435.57,2273.53 2434.60,2272.95 2433.79,2271.85"/>
    </edge>
    <edge id=":1695371014_0" function="internal">
        <lane id=":1695371014_0_0" index="0" speed="22.22" length="0.10" shape="1461.98,4618.26 1461.98,4618.26"/>
    </edge>
    <edge id=":1727780310_0" function="internal">
        <lane id=":1727780310_0_0" index="0" speed="13.89" length="3.59" shape="1325.27,4505.21 1322.46,4507.45"/>
    </edge>
    <edge id=":1727780310_1" function="internal">
        <lane id=":1727780310_1_0" index="0" speed="22.22" length="4.56" shape="1323.79,4502.26 1319.74,4504.37"/>
    </edge>
    <edge id=":1731564125_0" function="internal">
        <lane id=":1731564125_0_0" index="0" speed="27.78" length="0.16" shape="2974.85,3737.73 2974.93,3737.86"/>
    </edge>
    <edge id=":1731564125_1" function="internal">
        <lane id=":1731564125_1_0" index="0" speed="27.78" length="0.49" shape="2971.94,3739.29 2972.20,3739.71"/>
    </edge>
    <edge id=":1745856010_0" function="internal">
        <lane id=":1745856010_0_0" index="0" speed="13.89" length="0.10" shape="2666.33,4965.62 2666.33,4965.62"/>
    </edge>
    <edge id=":1745991210_0" function="internal">
        <lane id=":1745991210_0_0" index="0" speed="13.89" length="0.10" shape="2289.70,4808.35 2289.70,4808.35"/>
    </edge>
    <edge id=":1745991212_0" function="internal">
        <lane id=":1745991212_0_0" index="0" speed="27.78" length="0.10" shape="2327.48,4880.14 2327.48,4880.14"/>
    </edge>
    <edge id=":1745991212_1" function="internal">
        <lane id=":1745991212_1_0" index="0" speed="27.78" length="0.10" shape="2325.92,4877.23 2325.92,4877.23"/>
    </edge>
    <edge id=":1745991214_0" function="internal">
        <lane id=":1745991214_0_0" index="0" speed="27.78" length="0.10" shape="2364.98,4947.72 2364.98,4947.72"/>
    </edge>
    <edge id=":1745991214_1" function="internal">
        <lane id=":1745991214_1_0" index="0" speed="27.78" length="0.10" shape="2366.54,4950.63 2366.54,4950.63"/>
    </edge>
    <edge id=":1747650043_0" function="internal">
        <lane id=":1747650043_0_0" index="0" speed="13.89" length="5.04" shape="2277.36,3995.54 2276.53,3994.43 2275.54,3993.84 2274.41,3993.78 2273.13,3994.25"/>
    </edge>
    <edge id=":1747650043_1" function="internal">
        <lane id=":1747650043_1_0" index="0" speed="13.89" length="5.01" shape="2281.48,3989.73 2280.38,3990.55 2279.80,3991.53 2279.76,3992.66 2280.25,3993.94"/>
    </edge>
    <edge id=":1747650043_2" function="internal">
        <lane id=":1747650043_2_0" index="0" speed="22.22" length="9.50" shape="2281.48,3989.73 2273.13,3994.25"/>
    </edge>
    <edge id=":1751440888_0" function="internal">
        <lane id=":1751440888_0_0" index="0" speed="22.22" length="0.10" shape="2368.54,4314.46 2368.54,4314.46"/>
    </edge>
    <edge id=":1751440889_0" function="internal">
        <lane id=":1751440889_0_0" index="0" speed="27.78" length="0.10" shape="2224.18,4312.01 2224.18,4312.01"/>
    </edge>
    <edge id=":1751440889_1" function="internal">
        <lane id=":1751440889_1_0" index="0" speed="27.78" length="0.10" shape="2221.28,4313.59 2221.27,4313.59"/>
    </edge>
    <edge id=":1752946324_0" function="internal">
        <lane id=":1752946324_0_0" index="0" speed="27.78" length="0.10" shape="2091.79,4372.14 2091.79,4372.14"/>
    </edge>
    <edge id=":1752946324_1" function="internal">
        <lane id=":1752946324_1_0" index="0" speed="27.78" length="0.10" shape="2090.22,4369.23 2090.22,4369.23"/>
    </edge>
    <edge id=":1752946324_2" function="internal">
        <lane id=":1752946324_2_0" index="0" speed="27.78" length="0.10" shape="2087.09,4363.42 2087.09,4363.43"/>
    </edge>
    <edge id=":1752946324_3" function="internal">
        <lane id=":1752946324_3_0" index="0" speed="27.78" length="0.10" shape="2088.66,4366.33 2088.66,4366.33"/>
    </edge>
    <edge id=":1752946328_0" function="internal">
        <lane id=":1752946328_0_0" index="0" speed="22.22" length="0.10" shape="2131.55,4442.11 2131.55,4442.11"/>
    </edge>
    <edge id=":1762438249_0" function="internal">
        <lane id=":1762438249_0_0" index="0" speed="13.89" length="0.10" shape="2347.44,4686.66 2347.44,4686.66"/>
    </edge>
    <edge id=":1762438252_0" function="internal">
        <lane id=":1762438252_0_0" index="0" speed="27.78" length="0.10" shape="2308.47,4615.41 2308.47,4615.41"/>
    </edge>
    <edge id=":1762438252_1" function="internal">
        <lane id=":1762438252_1_0" index="0" speed="27.78" length="0.10" shape="2310.03,4618.31 2310.03,4618.31"/>
    </edge>
    <edge id=":1806444940_0" function="internal">
        <lane id=":1806444940_0_0" index="0" speed="5.56" length="0.10" shape="1072.60,4691.74 1072.60,4691.74"/>
    </edge>
    <edge id=":1815133244_0" function="internal">
        <lane id=":1815133244_0_0" index="0" speed="27.78" length="0.10" shape="1908.00,5463.97 1908.00,5463.97"/>
    </edge>
    <edge id=":1815133244_1" function="internal">
        <lane id=":1815133244_1_0" index="0" speed="27.78" length="0.10" shape="1910.91,5462.41 1910.91,5462.41"/>
    </edge>
    <edge id=":1828749428_0" function="internal">
        <lane id=":1828749428_0_0" index="0" speed="13.89" length="0.10" shape="2411.82,5014.37 2411.82,5014.37"/>
    </edge>
    <edge id=":1918048623_0" function="internal">
        <lane id=":1918048623_0_0" index="0" speed="27.78" length="0.10" shape="726.35,4011.37 726.35,4011.37"/>
    </edge>
    <edge id=":1918048623_1" function="internal">
        <lane id=":1918048623_1_0" index="0" speed="27.78" length="0.10" shape="727.88,4014.29 727.89,4014.29"/>
    </edge>
    <edge id=":1919595915_0" function="internal">
        <lane id=":1919595915_0_0" index="0" speed="27.78" length="0.10" shape="1179.21,1017.40 1179.21,1017.40"/>
    </edge>
    <edge id=":1919595915_1" function="internal">
        <lane id=":1919595915_1_0" index="0" speed="27.78" length="0.10" shape="1182.00,1015.65 1182.00,1015.65"/>
    </edge>
    <edge id=":1993431127_0" function="internal">
        <lane id=":1993431127_0_0" index="0" speed="27.78" length="9.51" shape="889.63,5018.74 881.23,5023.18"/>
    </edge>
    <edge id=":1993431127_1" function="internal">
        <lane id=":1993431127_1_0" index="0" speed="27.78" length="9.50" shape="888.09,5015.82 879.69,5020.26"/>
    </edge>
    <edge id=":1993431127_2" function="internal">
        <lane id=":1993431127_2_0" index="0" speed="16.67" length="9.98" shape="888.09,5015.82 885.33,5016.59 882.71,5015.92 880.24,5013.80 879.60,5012.84"/>
    </edge>
    <edge id=":1993431127_8" function="internal">
        <lane id=":1993431127_8_0" index="0" speed="16.67" length="3.12" shape="879.60,5012.84 877.89,5010.24"/>
    </edge>
    <edge id=":1993431127_3" function="internal">
        <lane id=":1993431127_3_0" index="0" speed="16.67" length="5.00" shape="880.81,5008.69 881.62,5009.80 882.59,5010.39 883.71,5010.45 885.00,5009.98"/>
    </edge>
    <edge id=":1993431127_4" function="internal">
        <lane id=":1993431127_4_0" index="0" speed="16.67" length="13.10" shape="880.81,5008.69 882.44,5012.63 882.80,5015.87 881.88,5018.41 879.69,5020.26"/>
    </edge>
    <edge id=":1993431127_5" function="internal">
        <lane id=":1993431127_5_0" index="0" speed="16.67" length="5.00" shape="876.60,5014.43 877.71,5013.62 878.30,5012.65 878.36,5011.52 877.89,5010.24"/>
    </edge>
    <edge id=":1993431127_6" function="internal">
        <lane id=":1993431127_6_0" index="0" speed="27.78" length="9.50" shape="876.60,5014.43 885.00,5009.98"/>
    </edge>
    <edge id=":1993431127_7" function="internal">
        <lane id=":1993431127_7_0" index="0" speed="27.78" length="9.50" shape="878.15,5017.34 886.55,5012.90"/>
    </edge>
    <edge id=":2050767462_0" function="internal">
        <lane id=":2050767462_0_0" index="0" speed="44.44" length="0.10" shape="1062.53,4680.08 1062.53,4680.08"/>
    </edge>
    <edge id=":2050767462_1" function="internal">
        <lane id=":2050767462_1_0" index="0" speed="44.44" length="0.10" shape="1060.97,4677.17 1060.97,4677.17"/>
    </edge>
    <edge id=":2050767463_0" function="internal">
        <lane id=":2050767463_0_0" index="0" speed="22.22" length="0.10" shape="1099.04,4712.47 1099.00,4712.49"/>
    </edge>
    <edge id=":2050767463_1" function="internal">
        <lane id=":2050767463_1_0" index="0" speed="22.22" length="0.10" shape="1100.59,4715.38 1100.59,4715.38"/>
    </edge>
    <edge id=":2077984658_0" function="internal">
        <lane id=":2077984658_0_0" index="0" speed="27.78" length="0.10" shape="1709.24,2090.96 1709.24,2090.95"/>
    </edge>
    <edge id=":2077984658_1" function="internal">
        <lane id=":2077984658_1_0" index="0" speed="27.78" length="0.10" shape="1711.33,2088.40 1711.34,2088.41"/>
    </edge>
    <edge id=":2077984663_0" function="internal">
        <lane id=":2077984663_0_0" index="0" speed="27.78" length="0.10" shape="1712.22,2093.40 1712.22,2093.40"/>
    </edge>
    <edge id=":2077984663_1" function="internal">
        <lane id=":2077984663_1_0" index="0" speed="27.78" length="0.10" shape="1714.31,2090.85 1714.32,2090.85"/>
    </edge>
    <edge id=":2077984664_0" function="internal">
        <lane id=":2077984664_0_0" index="0" speed="27.78" length="0.10" shape="1628.78,2103.35 1628.78,2103.35"/>
    </edge>
    <edge id=":2077984664_1" function="internal">
        <lane id=":2077984664_1_0" index="0" speed="27.78" length="0.10" shape="1627.23,2100.43 1627.23,2100.43"/>
    </edge>
    <edge id=":2077984664_2" function="internal">
        <lane id=":2077984664_2_0" index="0" speed="27.78" length="0.10" shape="1624.15,2094.60 1624.15,2094.60"/>
    </edge>
    <edge id=":2077984664_3" function="internal">
        <lane id=":2077984664_3_0" index="0" speed="27.78" length="0.10" shape="1625.69,2097.52 1625.69,2097.52"/>
    </edge>
    <edge id=":2176936521_0" function="internal">
        <lane id=":2176936521_0_0" index="0" speed="27.78" length="0.10" shape="2417.12,4470.91 2417.12,4470.91"/>
    </edge>
    <edge id=":2176936521_1" function="internal">
        <lane id=":2176936521_1_0" index="0" speed="27.78" length="0.10" shape="2415.55,4468.00 2415.55,4468.00"/>
    </edge>
    <edge id=":2176936535_0" function="internal">
        <lane id=":2176936535_0_0" index="0" speed="27.78" length="0.10" shape="2451.79,4537.94 2451.79,4537.94"/>
    </edge>
    <edge id=":2176936535_1" function="internal">
        <lane id=":2176936535_1_0" index="0" speed="27.78" length="0.10" shape="2453.36,4540.85 2453.35,4540.85"/>
    </edge>
    <edge id=":221157083#20-AddedOffRampNode_0" function="internal">
        <lane id=":221157083#20-AddedOffRampNode_0_0" index="0" speed="27.78" length="7.25" shape="3104.01,3977.58 3111.24,3977.08"/>
    </edge>
    <edge id=":221157083#20-AddedOffRampNode_1" function="internal">
        <lane id=":221157083#20-AddedOffRampNode_1_0" index="0" speed="27.78" length="7.25" shape="3101.11,3979.15 3108.34,3978.65"/>
    </edge>
    <edge id=":221157083#20-AddedOffRampNode_2" function="internal">
        <lane id=":221157083#20-AddedOffRampNode_2_0" index="0" speed="27.78" length="4.46" shape="3101.11,3979.15 3105.44,3980.22"/>
    </edge>
    <edge id=":221157083#20-AddedOffRampNode_3" function="internal">
        <lane id=":221157083#20-AddedOffRampNode_3_0" index="0" speed="27.78" length="3.00" shape="3101.11,3979.15 3102.53,3981.79"/>
    </edge>
    <edge id=":221157083#24-AddedOffRampNode_0" function="internal">
        <lane id=":221157083#24-AddedOffRampNode_0_0" index="0" speed="27.78" length="7.25" shape="3254.72,4257.19 3261.96,4256.68"/>
    </edge>
    <edge id=":221157083#24-AddedOffRampNode_1" function="internal">
        <lane id=":221157083#24-AddedOffRampNode_1_0" index="0" speed="27.78" length="7.25" shape="3251.82,4258.76 3259.06,4258.25"/>
    </edge>
    <edge id=":221157083#24-AddedOffRampNode_2" function="internal">
        <lane id=":221157083#24-AddedOffRampNode_2_0" index="0" speed="27.78" length="4.46" shape="3251.82,4258.76 3256.15,4259.83"/>
    </edge>
    <edge id=":221157083#24-AddedOffRampNode_3" function="internal">
        <lane id=":221157083#24-AddedOffRampNode_3_0" index="0" speed="27.78" length="3.00" shape="3251.82,4258.76 3253.25,4261.40"/>
    </edge>
    <edge id=":226040997#1-AddedOnRampNode_0" function="internal">
        <lane id=":226040997#1-AddedOnRampNode_0_0" index="0" speed="22.22" length="3.00" shape="2886.88,2849.07 2889.54,2847.69"/>
    </edge>
    <edge id=":2295332108_0" function="internal">
        <lane id=":2295332108_0_0" index="0" speed="22.22" length="0.10" shape="1156.13,4048.01 1156.13,4048.01"/>
    </edge>
    <edge id=":2302133933_0" function="internal">
        <lane id=":2302133933_0_0" index="0" speed="20.83" length="5.00" shape="2259.47,2743.57 2258.65,2742.46 2257.68,2741.89 2256.55,2741.83 2255.27,2742.31"/>
    </edge>
    <edge id=":2302133933_1" function="internal">
        <lane id=":2302133933_1_0" index="0" speed="27.78" length="6.21" shape="2259.47,2743.57 2256.53,2738.10"/>
    </edge>
    <edge id=":2302133933_2" function="internal">
        <lane id=":2302133933_2_0" index="0" speed="27.78" length="6.20" shape="2262.37,2742.00 2259.43,2736.54"/>
    </edge>
    <edge id=":2302133933_3" function="internal">
        <lane id=":2302133933_3_0" index="0" speed="13.89" length="9.50" shape="2263.63,2737.80 2255.27,2742.31"/>
    </edge>
    <edge id=":2302133933_4" function="internal">
        <lane id=":2302133933_4_0" index="0" speed="20.83" length="5.00" shape="2263.63,2737.80 2262.35,2738.27 2261.22,2738.22 2260.25,2737.64 2259.43,2736.54"/>
    </edge>
    <edge id=":2307164599_0" function="internal">
        <lane id=":2307164599_0_0" index="0" speed="22.22" length="0.10" shape="1369.90,3397.95 1369.90,3397.95"/>
    </edge>
    <edge id=":2307164619_0" function="internal">
        <lane id=":2307164619_0_0" index="0" speed="22.22" length="0.10" shape="1660.62,3152.10 1660.62,3152.10"/>
    </edge>
    <edge id=":2307164622_0" function="internal">
        <lane id=":2307164622_0_0" index="0" speed="22.22" length="0.10" shape="1694.09,3222.94 1694.09,3222.94"/>
    </edge>
    <edge id=":2307164623_0" function="internal">
        <lane id=":2307164623_0_0" index="0" speed="22.22" length="0.10" shape="1707.43,3215.71 1707.43,3215.71"/>
    </edge>
    <edge id=":2307164625_0" function="internal">
        <lane id=":2307164625_0_0" index="0" speed="22.22" length="0.10" shape="1669.90,3147.10 1669.90,3147.10"/>
    </edge>
    <edge id=":2308965779_0" function="internal">
        <lane id=":2308965779_0_0" index="0" speed="27.78" length="0.10" shape="1281.39,3804.67 1281.39,3804.67"/>
    </edge>
    <edge id=":2308965779_1" function="internal">
        <lane id=":2308965779_1_0" index="0" speed="27.78" length="0.10" shape="1279.82,3801.77 1279.82,3801.77"/>
    </edge>
    <edge id=":2308965780_0" function="internal">
        <lane id=":2308965780_0_0" index="0" speed="22.22" length="0.10" shape="1355.65,3940.09 1355.65,3940.09"/>
    </edge>
    <edge id=":2308965782_0" function="internal">
        <lane id=":2308965782_0_0" index="0" speed="27.78" length="0.10" shape="1478.21,3980.32 1478.21,3980.32"/>
    </edge>
    <edge id=":2308965782_1" function="internal">
        <lane id=":2308965782_1_0" index="0" speed="27.78" length="0.10" shape="1476.65,3977.42 1476.64,3977.42"/>
    </edge>
    <edge id=":2308965782_2" function="internal">
        <lane id=":2308965782_2_0" index="0" speed="27.78" length="0.10" shape="1475.08,3974.51 1475.08,3974.51"/>
    </edge>
    <edge id=":2308965782_3" function="internal">
        <lane id=":2308965782_3_0" index="0" speed="27.78" length="0.10" shape="1470.37,3965.80 1470.37,3965.80"/>
    </edge>
    <edge id=":2308965782_4" function="internal">
        <lane id=":2308965782_4_0" index="0" speed="27.78" length="0.10" shape="1471.94,3968.71 1471.94,3968.71"/>
    </edge>
    <edge id=":2308965782_5" function="internal">
        <lane id=":2308965782_5_0" index="0" speed="27.78" length="0.10" shape="1473.51,3971.61 1473.51,3971.61"/>
    </edge>
    <edge id=":2308965784_0" function="internal">
        <lane id=":2308965784_0_0" index="0" speed="22.22" length="0.10" shape="1433.84,3897.74 1433.84,3897.74"/>
    </edge>
    <edge id=":2308965786_0" function="internal">
        <lane id=":2308965786_0_0" index="0" speed="27.78" length="0.10" shape="1490.79,3973.53 1490.79,3973.53"/>
    </edge>
    <edge id=":2308965786_1" function="internal">
        <lane id=":2308965786_1_0" index="0" speed="27.78" length="0.10" shape="1489.22,3970.62 1489.22,3970.62"/>
    </edge>
    <edge id=":2308965786_2" function="internal">
        <lane id=":2308965786_2_0" index="0" speed="27.78" length="0.10" shape="1487.65,3967.72 1487.65,3967.72"/>
    </edge>
    <edge id=":2308965786_3" function="internal">
        <lane id=":2308965786_3_0" index="0" speed="27.78" length="0.10" shape="1482.95,3959.01 1482.95,3959.01"/>
    </edge>