<?xml version="1.0" encoding="UTF-8"?>

<!-- generated on Thu Jul 17 12:38:01 2014 by SUMO duarouter Version 0.17.1
<?xml version="1.0" encoding="UTF-8"?>

<configuration xmlns:xsi="http://www.w3.org/2001/XMLSchema-instance" xsi:noNamespaceSchemaLocation="http://sumo.sf.net/xsd/duarouterConfiguration.xsd">

    <input>
        <net-file value="/home/pierpaolo/Scrivania/scriptMirco/scriptMirco/facilitatore/v0.4/v0.4/net/Newyork2/Newyork2.net.xml"/>
        <trip-files value="/home/pierpaolo/Scrivania/scriptMirco/scriptMirco/facilitatore/v0.4/v0.4/rou/Newyork2/Newyork2.trips.xml"/>
    </input>

    <output>
        <output-file value="/home/pierpaolo/Scrivania/scriptMirco/scriptMirco/facilitatore/v0.4/v0.4/rou/Newyork2/Newyork2.rou.xml"/>
    </output>

    <processing>
        <ignore-errors value="true"/>
    </processing>

    <time>
        <begin value="0.0"/>
        <end value="1000.0"/>
    </time>

</configuration>
-->

<routes xmlns:xsi="http://www.w3.org/2001/XMLSchema-instance" xsi:noNamespaceSchemaLocation="http://sumo.sf.net/xsd/routes_file.xsd">
    <vehicle id="0" depart="0.00">
        <route edges="46525058#0 46525058#1 68325079#0 68325079#1 167922077#0 167922077#2 125480075 194926851#0 194926851#1 194926851#2 194926851#3 46482602#4 46482602#5"/>
    </vehicle>
    <vehicle id="1" depart="0.50">
        <route edges="196116976#8 196116976#9 5672036#6-AddedOnRampEdge 5672036#6 194926851#5 194926851#6 194926851#7 194920158#5 194920158#6 5670846#10 5670846#11"/>
    </vehicle>
    <vehicle id="2" depart="1.00">
        <route edges="68674965#0 68674965#1 -196117051#6 -196117051#5 -196117051#4 -196117051#3 -196117051#2 -196117051#1 5669875#2 196117039#39 196117039#40 195745914 -5671774#16 -5671620#5"/>
    </vehicle>
    <vehicle id="3" depart="1.50">
        <route edges="5672896#0 5672896#1 5672896#2 5672896#3 5672896#4 5671429#1 5671429#2 5671429#3 -5671774#3 -5671774#2 -5671774#1 -5671774#0"/>
    </vehicle>
    <vehicle id="4" depart="2.00">
        <route edges="68674961#1 68674961#2 46469720#2 46469720#3 46469720#4 5671181 46522005#0 46522005#1 46522005#2 194926854#3 194926854#4 36806906#5"/>
    </vehicle>
    <vehicle id="5" depart="2.50">
        <route edges="46443656#2 46443656#3 46443656#4 46443656#5 46443656#6 5671276#10 5671276#11 5671276#12 5671276#13 5671276#14 5671276#15 194926855#0 194926855#1 194926855#2 194926855#3 194926855#4 194926855#5 194926855#6 182690803 36806661#1 36806908#1 46492008 46492007#0-AddedOnRampEdge 46492007#0 46492007#1"/>
    </vehicle>
    <vehicle id="6" depart="3.00">
        <route edges="46139045#1 46139045#2 46139045#3 46139045#4 46139045#5 46139045#6 127693102#0 127693102#1 127693102#2 127693102#3 127693102#4 127693102#5 127693102#6 196117090#0 196117090#1 196117090#2 196117090#3 196117090#4 196117090#5 196117090#6 196117090#7 196117090#8 196117090#9 196117090#10 196117090#11 196117090#12 196117090#13 196117090#14 196117090#15 196117090#16 68668519#0 68668519#1 68668519#2 68668519#3 68668519#4 68668519#5 68668519#6 46522005#0 46522005#1"/>
    </vehicle>
    <vehicle id="7" depart="3.50">
        <route edges="167922071#1 167922071#2 167922071#3 167922071#4 167922071#5 167922071#6 167922071#7 226041027#4 226041026#0 127693103#5 46522008#0"/>
    </vehicle>
    <vehicle id="8" depart="4.00">
        <route edges="5672434 196117073 196117091#0 196117091#1 22927373#6 22927373#7 5671429#0 5671429#1"/>
    </vehicle>
    <vehicle id="10" depart="5.00">
        <route edges="-195743555#1 -195743555#0 195743556#0 195743556#1 127693102#2 127693102#3 127693102#4 127693102#5 127693102#6 196117090#0 196117090#1 196117090#2 196117090#3 196117090#4 196117090#5 196117090#6 196117090#7 196117090#8 -116672333#6 -116672333#5 127693383#0 127693383#1 5672273#4 5672273#5 5672273#6 194926856#8 194926856#9 116672333#4"/>
    </vehicle>
    <vehicle id="11" depart="5.50">
        <route edges="194926851#8 194926851#9 46538375#6 196116976#5 196116976#6 194920158#6 5670846#10 5670846#11 5670846#12 5670846#13 167922071#0 167922071#1 167922071#2 167922071#3 167922071#4 167922071#5 167922071#6 167922071#7 167922071#8 167922071#9 167922070 195743344#0 195743344#1 195743344#2 195743344#3 195743344#4 195743344#5 195743344#6 5670803#0 5670803#1 195743190 68668556 5670836#0 5670836#1 5670836#2 5670836#3 5670836#4 5670836#5 5670836#6 5670836#7 5670836#8 5670836#9 5670836#10 5672450#2 194923811#5 110489637"/>
    </vehicle>
    <vehicle id="12" depart="6.00">
        <route edges="5671393#1 196117042#0 196117042#1 196117042#2 196117042#3 196117042#4 196117042#5 46334598#3 5671932#0 5671932#1 68668519#0 68668519#1 68668519#2 68668519#3 68668519#4 68668519#5 68668519#6 46522005#0 46522005#1 46522005#2 194926854#3 194926854#4 125479721#0 125479721#1 195743345 125480075 194926851#0 194926851#1 194926851#2 194926851#3 194926851#4 194926851#5 194926851#6 194926851#7 194926851#8"/>
    </vehicle>
    <vehicle id="13" depart="6.50">
        <route edges="46522002#4 5670114#0 5670114#1 5670114#2 5670114#3 127693103#12 127693103#13 127693103#14"/>
    </vehicle>
    <vehicle id="14" depart="7.00">
        <route edges="195743164#5 5672851#14 5672851#15 5672851#16 5672851#17 5672851#18 5672851#19 194923808#0 194923808#1 194923808#2 194923807#0 194923807#1 46201654#1 46201654#2 46201654#3"/>
    </vehicle>
    <vehicle id="15" depart="7.50">
        <route edges="35027229#5 35027229#6 5673561#2 5673561#3-AddedOnRampEdge 5673561#3 195743344#6 5670803#0 5670803#1 195743190 68668556 5670836#0 5670836#1 5670836#2 5670296#5 221674460 221674464"/>
    </vehicle>
    <vehicle id="16" depart="8.00">
        <route edges="46490540#3 46490540#4 46481747#1 46481747#2 46481747#3 46481747#4 46481747#5 46481747#6 46481747#7 46481747#8 46522006 195743336#25 195743336#26 195743343#0 195743343#1 5671693 195743165#0 5673380#0 44165026 46520834"/>
    </vehicle>
    <vehicle id="17" depart="8.50">
        <route edges="196117039#12 196117039#13 196117039#14 196117039#15 46522002#1 46522002#2 46522002#3 46522002#4 5670114#0 5670114#1 5670114#2 5670114#3 46443656#0 46443656#1 46443656#2 46443656#3 46443656#4 46443656#5 46443656#6 5671276#10 5671276#11 5671276#12 5671276#13 5671276#14 5671276#15 194926855#0 -167922077#0 -68325079#1 -68325079#0 46139027#0"/>
    </vehicle>
    <vehicle id="19" depart="9.50">
        <route edges="5672450#0 196117090#5 196117090#6 196117090#7 196117090#8 -116672333#6 -116672333#5 127693383#0 127693383#1 127693383#2 127693383#3 127693383#4 127693383#5 127693383#6 127693383#7 5671932#4 5671932#5 46490538#0 46490538#1 46490538#2 46490537#0 46490537#2 46490540#1-AddedOnRampEdge 46490540#1 46490540#2 46490540#3 46490540#4 46490540#5 46490540#6 46490540#7 46490540#8 46490540#9 46482537#1 46482537#2 46492638"/>
    </vehicle>
    <vehicle id="20" depart="10.00">
        <route edges="46432183#1 36801336#0 46482541 -36801165#0 5671425 46139029 46482538#0 46482538#1 46482538#2 46482537#0 46490540#10 46490540#11 -68325079#0 -169267538#1"/>
    </vehicle>
    <vehicle id="21" depart="10.50">
        <route edges="195743182#9 -5672991#0 -167922072#4 -167922072#3 -167922072#2 -167922072#1 -167922072#0 -167922076 -167922077#3 125480075 194926846#0 194926846#1 194926847"/>
    </vehicle>
    <vehicle id="22" depart="11.00">
        <route edges="46538335#2 127693103#14 46538375#9 46538375#10 195743336#7 195743336#8 195743336#9 195743336#10 195743336#11 195743336#12 195743336#13 195743336#14 195743336#15 195743336#16 195743336#17 195743336#18 5672991#0 5672991#1 5672991#2 44165027#0 44165027#1 44165027#2 68674968#0 68674968#1 68674968#2 68674968#3 68674968#4 5671315#3 196117039#31 196117039#32 196117039#33 196117039#34 226040998#1"/>
    </vehicle>
    <vehicle id="24" depart="12.00">
        <route edges="221157083#20-AddedOffRampEdge 221157083#21 46522007#0 196117039#20 196117039#21 196117039#22 196117039#23 196117039#24 196117039#25 196117039#26 196117039#27 196117039#28 196117039#29 196117039#30 196117039#31 196117039#32 196117039#33 196117039#34 196117039#35 196117039#36 196117039#37 196117039#38 196117039#39 196117039#40 195745914 -5671774#16 -5671620#5"/>
    </vehicle>
    <vehicle id="25" depart="12.50">
        <route edges="196117039#3 196117039#4 196117039#5 196117039#6 196117039#7 196117039#8 196117039#9 196117039#10 196117039#11 196117039#12 196117039#13 196117039#14 196117039#15 46522002#1 46522002#2 46522002#3 46522002#4 5670114#0 5670114#1 5670114#2 5670114#3 46443656#0 46443656#1 46443656#2 46443656#3 46443656#4 46443656#5 46443656#6 5671276#10 5671276#11 5671276#12 5671276#13 5671276#14 5671276#15 194926855#0"/>
    </vehicle>
    <vehicle id="26" depart="13.00">
        <route edges="68325075-AddedOnRampEdge 68325075 5670275#0 5670275#1 36806658-AddedOnRampEdge 36806658 36806659#0 36806659#1 127693383#7 127693383#8 127693383#9 127693383#10 194926854#0 194926854#1 194926854#2 194926854#3 5670197#3 5670197#4"/>
    </vehicle>
    <vehicle id="28" depart="14.00">
        <route edges="5670551#4 157014136#5 22897633#4 22897633#5 22897633#6 5671774#10 5671774#11 5671774#12 5671774#13 5671774#14 5671774#15 -5671620#5 -5671620#4 -5671620#3 -5671620#2 -5671620#0 -116672333#7 196117090#9 196117090#10 196117090#11 196117090#12 196117090#13 196117090#14 196117090#15 196117090#16 68668519#0 68668519#1 68668519#2 68668519#3 68668519#4 68668519#5 68668519#6 46522005#0 46522005#1 46522005#2 194926854#3 194926854#4 125479721#0 125479721#1 195743345 125480075 194926851#0 194926851#1 46522008#3 46522008#4 5671276#14 226041027#0 226041027#1"/>
    </vehicle>
    <vehicle id="29" depart="14.50">
        <route edges="22914179#5 5670876 34080174#1 5672211#2 156994961#0 196117090#7 196117090#8 196117090#9 196117090#10 196117090#11 196117090#12 196117090#13 196117090#14 196117090#15 196117090#16 68668519#0 68668519#1 68668519#2 68668519#3 68668519#4 68668519#5 68668519#6 68668519#7 68668519#8 68668519#9 127693103#0 127693103#1 127693103#2 127693103#3 127693103#4 127693103#5 127693103#6 127693103#7 127693103#8 127693103#9 127693103#10 127693103#11 127693103#12 127693103#13 127693103#14 127693103#15"/>
    </vehicle>
    <vehicle id="31" depart="15.50">
        <route edges="195743344#5 195743344#6 5670803#0 5670803#1 195743190 68668556 226041020 226041019 46581216#1 46581216#2 46581216#3 46581216#4 46334600 5669875#0 5669875#1 -196117051#0 -5672937#7 -5672937#6 5671620#4 5671620#5 -5671774#15 -5671774#14 -5671774#13 -5671774#12 -5671774#11 -5671774#10 -5671774#9"/>
    </vehicle>
    <vehicle id="33" depart="16.50">
        <route edges="194920158#6 194920158#7 194920158#8 5670867#0 5670867#1 5670867#2 5670867#3 195743336#9 195743336#10 195743336#11 195743336#12 195743336#13 195743336#14 5670225#0 5670225#1 5670225#2 5670225#3 5670225#4 5670225#5 221157083#23 221157083#24 221157083#24-AddedOffRampEdge 221157083#25 221157083#26 221157083#27"/>
    </vehicle>
    <vehicle id="35" depart="17.50">
        <route edges="194926856#0 194926856#1 194926856#2 36806659#0 36806659#1 36806659#2 226041020 226041019 46581216#1 46581216#2 46581216#3 46581216#4 46334600 5669875#0 5669875#1 -196117051#0 -5672937#7 -5672937#6 5671620#4 5671620#5"/>
    </vehicle>
    <vehicle id="36" depart="18.00">
        <route edges="127693201#5 5670719#2 194926856#6 194926856#7 194926856#8 194926856#9 116672333#4 116672333#5 116672333#6 116672333#7 5671620#0 5671620#2 5671620#3 5672937#6 5670466#1 196117039#41 -5671620#4"/>
    </vehicle>
    <vehicle id="37" depart="18.50">
        <route edges="46581216#4 46334600 5669875#0 196117042#1 196117042#2 196117042#3 196117042#4 196117042#5 196117042#6 195743182#0 195743182#1 5671315#1 68674961#0 68674961#1 5673231#3 5673231#4 5673231#5 221157083#12 46469720#0"/>
    </vehicle>
    <vehicle id="38" depart="19.00">
        <route edges="35027229#5 35027229#6 5673561#2 5673561#3-AddedOnRampEdge 5673561#3 195743344#6 5670803#0 5670803#1 195743190 68668556 5670836#0 5670836#1 5670836#2 5670836#3 5670836#4 5670836#5 5670836#6 5670836#7 22914179#4 22914179#5"/>
    </vehicle>
    <vehicle id="39" depart="19.50">
        <route edges="-5672434 68668541#0 5671359#0 196117090#1 196117090#2 196117090#3 196117090#4 196117090#5 196117090#6 196117090#7 196117090#8 196117090#9 196117090#10 196117090#11 196117090#12 196117090#13 196117090#14 196117090#15 196117090#16 68668519#0 68668519#1 68668519#2 68668519#3 68668519#4 68668519#5 68668519#6 46522005#0 46522005#1 46522005#2 194926854#3 194926854#4 125479721#0 125479721#1 195743210#0 195743210#1 195743210#2 46334593 46491363"/>
    </vehicle>
    <vehicle id="40" depart="20.00">
        <route edges="68325075 5670275#0 5670275#1 36806658-AddedOnRampEdge 36806658 36806659#0 36806659#1 36806659#2 226041020 226041019 46581216#1 46581216#2 46581216#3 46581216#4 46334600 5669875#0 5669875#1 -196117051#0 -5672937#7"/>
    </vehicle>
    <vehicle id="41" depart="20.50">
        <route edges="46581216#1 5669669#1 196117090#15 196117090#16 5671932#2 5671932#3 5671932#4 5671932#5 46490538#0 46490538#1 46490538#2 46490537#0 46490537#2 46490540#1-AddedOnRampEdge"/>
    </vehicle>
    <vehicle id="42" depart="21.00">
        <route edges="46538375#10 195743336#7 195743336#8 195743336#9 195743336#10 195743336#11 5670114#0 5670114#1 5670114#2 5670114#3 46443656#0 46443656#1 46443656#2 46443656#3 46443656#4 46443656#5 46443656#6 5671276#10 5671276#11 5671276#12 5671276#13 5671276#14 5671276#15 194926855#0 194926855#1 194926855#2 194926855#3 194926855#4 194926855#5 194926855#6 194926855#7 194926855#8 194926855#9 194926856#0 5671440#7 273019805#0 273019805#2 273019803#0 273019803#1"/>
    </vehicle>
    <vehicle id="43" depart="21.50">
        <route edges="-5672991#5 -5672991#4 -5672991#3 -5672991#2 -5672991#1 -5672991#0 -167922072#4 -167922072#3 -167922072#2 -167922072#1 -167922072#0 -167922076 -167922077#3 -167922077#2 194926855#1 194926855#2 194926855#3 226041021#0 226041021#1 36806905 46432183#0 46490540#8 46490540#9"/>
    </vehicle>
    <vehicle id="44" depart="22.00">
        <route edges="5673515#1 195743336#18 195743336#19 195743336#20 195743336#21 195743336#22 195743336#23 195743336#24 195743336#25 195743336#26 195743343#0 195743343#1 195743343#2 195743343#3 195743343#4 5669669#0 5669669#1 196117090#15 226041019"/>
    </vehicle>
    <vehicle id="45" depart="22.50">
        <route edges="36806907 46492015 46492016 46492007#0-AddedOnRampEdge 46492007#0 36806677 46492010#1 46481747#2 46481747#3 46481747#4 46481747#5 46481747#6 46481747#7 46481747#8 46522006 5673231#0 5673231#1 68674968#3 68674968#4 5671315#3"/>
    </vehicle>
    <vehicle id="46" depart="23.00">
        <route edges="46334598#2 46334598#3 195743343#3 195743343#4 195743343#5 195743343#6 195743343#7 68668552#0 68668552#1 5672965#0 5672965#1 -116672333#7 -116672333#6 5670836#7 5670836#8 5670836#9 5670836#10 5672450#2"/>
    </vehicle>
    <vehicle id="47" depart="23.50">
        <route edges="-167922072#4 -167922072#3 -167922072#2 -167922072#1 -167922072#0 35027229#0 35027229#1 35027229#2 35027229#3 35027229#4 35027229#5 46481747#8 46522006 5673231#0 5673231#1 68674968#3 68674968#4 5671315#3 5671315#4 5671315#5 5671315#6 118400729#0 118400729#1 118400729#2 118400729#3 118400729#4 222299248#0 222299248#1 222299248#2 222299248#3 222299248#4 222299248#5 157014136#0 46334599#4 46334599#5 33804436"/>
    </vehicle>
    <vehicle id="49" depart="24.50">
        <route edges="196117039#10 196117039#11 196117039#12 196117039#13 196117039#14 196117039#15 196117039#16 196117039#17 196117039#18 196117039#19 196117039#20 196117039#21 196117039#22 196117039#23 196117039#24 196117039#25 196117039#26 196117039#27 196117039#28 196117039#29 196117039#30 -5671315#3 -5671315#1 -5671315#0 195743343#0 195743343#1 195743343#2 195743343#3 195743343#4 195743343#5 195743343#6 195743343#7 68668552#0 68668552#1 5672965#0 5672965#1 -116672333#7 -116672333#6 5670836#7 5670836#8 5670836#9 5670836#10 5672450#2"/>
    </vehicle>
    <vehicle id="50" depart="25.00">
        <route edges="194926854#4 125479721#0 226041023#2 226041023#3 35027229#2 35027229#3 35027229#4 35027229#5 46481747#8 46522006 5673231#0 5673231#1 68674968#3 68674968#4 5671315#3 5671315#4 5671315#5 5671315#6 118400729#0 118400729#1 118400729#2 118400729#3 118400729#4 222299248#0 222299248#1 222299248#2 222299248#3 222299248#4 222299248#5 157014136#0 157014136#1 157014136#2 157014136#3 157014136#4 5670551#5 5670551#6 5672851#18 5672851#19"/>
    </vehicle>
    <vehicle id="51" depart="25.50">
        <route edges="273019810#1 46481755#0 -46481744#2 -46481744#1 5672142 46481747#0 46481747#1 46481747#2 46481747#3 46481747#4 46481747#5 194926854#2 194926854#3 194926854#4 125479721#0 125479721#1 195743345 125480075 194926851#0 194926851#1 194926851#2 194926851#3 194926851#4 5672036#7"/>
    </vehicle>
    <vehicle id="52" depart="26.00">
        <route edges="5670846#1 5670846#2 5670846#3 5670846#4 5670846#5 5670846#6 5670846#7 5670846#8 5670846#9 5670846#10 5670846#11 5670846#12 5670846#13 167922071#0 167922071#1 167922071#2 167922071#3 167922071#4 167922071#5 167922071#6 167922071#7 167922071#8 167922071#9 167922076 35027229#0 35027229#1 35027229#2 35027229#3 35027229#4 35027229#5 46481747#8 46522006 195743336#25 195743336#26 195743343#0 195743343#1 195743343#2 195743343#3 195743343#4 195743343#5 195743343#6 195743343#7 68668552#0"/>
    </vehicle>
    <vehicle id="53" depart="26.50">
        <route edges="46538375#8 46538375#9 46538375#10 195743336#7 195743336#8 195743336#9 195743336#10 195743336#11 195743336#12 195743336#13 195743336#14 195743336#15 195743336#16 195743336#17 195743336#18 195743336#19 195743336#20 195743336#21 195743336#22 195743336#23 195743336#24 195743336#25 195743336#26 195743343#0 195743343#1 5671693 195743165#0 5673380#0 44165026 46520834 44165029#0"/>
    </vehicle>
    <vehicle id="54" depart="27.00">
        <route edges="-5672991#0 195743336#19 195743336#20 195743336#21 195743336#22 195743336#23 195743336#24 195743336#25 195743336#26 195743343#0 195743343#1 195743343#2 195743343#3 195743343#4 195743343#5 195743343#6 195743343#7 68668552#0 68668552#1 22898643#0 22898643#1 34080174#0 34080174#1 34080174#2 34080174#3 34080174#4 5670551#1 5670551#2"/>
    </vehicle>
    <vehicle id="55" depart="27.50">
        <route edges="5672036#6 194926851#5 226041028#0 226041028#1 167922074 167922071#0 167922071#1 167922071#2 167922071#3 167922071#4 167922071#5 167922071#6 167922071#7 167922071#8 167922071#9 167922070 195743344#0 195743344#1 195743344#2 195743344#3 195743344#4 195743344#5 195743344#6 5670803#0 5670803#1 195743190 68668556 226041020 226041019 46581216#1 46581216#2 46581216#3 46581216#4 167923358#0 167923358#1 167923358#2 22898643#0 22898643#1 34080174#0 34080174#1 34080174#2 34080174#3 34080174#4 167923357 5670731#0 5670731#1 5670731#2 5670924#1 5670924#2 5669742#0 25162679#6"/>
    </vehicle>
    <vehicle id="56" depart="28.00">
        <route edges="194923795#2 5670836#12 5670785#2 194923811#3 194923811#4 194923811#5 194923811#6 156994969#0 156994969#1 127693383#0 127693383#1 127693383#2 127693383#3 127693383#4 127693383#5 127693383#6 127693383#7 127693383#8 127693383#9 127693383#10 194926854#0 194926854#1 194926854#2 194926854#3 194926854#4 125479721#0 125479721#1 195743345 125480075 194926846#0 194926846#1 194926855#0 167922077#2"/>
    </vehicle>
    <vehicle id="57" depart="28.50">
        <route edges="196117039#5 196117039#6 196117039#7 196117039#8 196117039#9 196117039#10 196117039#11 196117039#12 196117039#13 196117039#14 196117039#15 46522002#1 46522002#2 46522002#3 46522002#4 5670114#0 5670114#1 5670114#2 5670114#3 46443656#0 46443656#1 46443656#2 46443656#3 46443656#4 46443656#5 46443656#6 5671276#10 5671276#11 5671276#12 5671276#13 5671276#14 5671276#15 194926855#0 194926855#1 194926855#2 194926855#3 194926855#4 194926855#5 194926855#6 194926855#7 194926855#8 194926855#9 194926856#0 194926856#1 46490538#2 46490537#0 5672730"/>
    </vehicle>
    <vehicle id="58" depart="29.00">
        <route edges="46469720#4 195743336#24 5673231#0 5673231#1 68674968#3 68674968#4 68674965#0 68674965#1 -196117051#6 46334598#2"/>
    </vehicle>
    <vehicle id="60" depart="30.00">
        <route edges="-5671315#1 195743182#2 195743182#3 195743182#4 46469720#4 5671181 46522005#0 46522005#1 46522005#2 194926854#3 194926854#4 125479721#0 125479721#1 195743345 -167922077#2"/>
    </vehicle>
    <vehicle id="61" depart="30.50">
        <route edges="226041027#3 167922071#8 167922071#9 167922070 195743344#0 195743344#1 195743344#2 195743344#3 195743344#4 195743344#5 195743344#6 5670803#0 5670803#1 195743190 68668556 5670836#0 5670836#1 5670836#2 5670836#3 5670836#4 5672273#3 127693383#2 127693383#3"/>
    </vehicle>
    <vehicle id="62" depart="31.00">
        <route edges="-196117073 196117090#0 196117090#1 196117090#2 196117090#3 196117090#4 196117090#5 196117090#6 196117090#7 196117090#8 196117090#9 196117090#10 196117090#11 196117090#12 196117090#13 196117090#14 196117090#15 196117090#16 68668519#0 68668519#1 68668519#2 68668519#3 68668519#4 68668519#5 68668519#6 68668519#7 68668519#8 68668519#9 127693103#0 127693103#1 127693103#2 127693103#3 127693103#4 127693103#5 127693103#6 127693103#7 127693103#8 127693103#9 127693103#10 127693103#11 46443656#0 46443656#1 46443656#2 196116976#8"/>
    </vehicle>
    <vehicle id="63" depart="31.50">
        <route edges="-5671774#14 34079830 5670673#0 5670673#1 5672211#0 5672937#4 5672937#5 -5671620#3 -5671620#2 -5671620#0 -116672333#7 196117090#9 196117090#10 196117090#11 196117090#12 196117090#13 196117090#14 196117090#15 196117090#16 68668519#0 68668519#1 68668519#2 68668519#3 68668519#4 68668519#5 68668519#6 68668519#7 68668519#8 68668519#9 127693103#0 127693103#1 127693103#2 127693103#3 127693103#4 127693103#5 127693103#6 127693103#7 127693103#8 127693103#9 127693103#10 127693103#11 46443656#0"/>
    </vehicle>
    <vehicle id="64" depart="32.00">
        <route edges="5670924#2 195743164#1 34080149#0 34080149#1 -68668537#1 -68668537#0 -5670522 5672937#0 5672937#1 5672937#2 5672937#3 5672937#4 5672937#5 -5671620#3 -5671620#2 -5671620#0 -116672333#7"/>
    </vehicle>
    <vehicle id="65" depart="32.50">
        <route edges="5669669#2 5670836#1 5670836#2 5670836#3 5670836#4 5670836#5 5670836#6 5670836#7 5670836#8 5670836#9 5670836#10 5670836#11 5670836#12 5670836#13 5670836#14 5670836#15 196117074#0 196117074#1"/>
    </vehicle>
    <vehicle id="66" depart="33.00">
        <route edges="196117073 196117091#0 196117091#1 196117091#2 5671668#2"/>
    </vehicle>
    <vehicle id="67" depart="33.50">
        <route edges="221157083#1 221157083#2 221157083#3 221157083#4 221157083#5 221157083#6 221157083#7 221157083#8 221157083#9 -5671315#4 -5671315#3 -5671315#1 195743182#2 195743182#3 195743182#4 46469720#4 5671181 46522005#0 46522005#1 46522005#2 194926854#3 194926854#4 125479721#0 125479721#1 195743345 125480075 194926846#0"/>
    </vehicle>
    <vehicle id="69" depart="34.50">
        <route edges="46522002#4 195743336#12 195743336#13 195743336#14 195743336#15 195743336#16 195743336#17 195743336#18 195743336#19 195743336#20 195743336#21 195743336#22 195743336#23 195743336#24 195743336#25 195743336#26 195743343#0 195743343#1 195743343#2 5671932#0 5671932#1 68668519#0 68668519#1 5671440#0"/>
    </vehicle>
    <vehicle id="70" depart="35.00">
        <route edges="31984136 46226335 46490537#2 46490540#1-AddedOnRampEdge 46490540#1 46490540#2 -273019810#0 -273019807 -36806903#1 -139919706 139919714#0 139919714#1 46481747#3 46481747#4 46481747#5 46481747#6 46481747#7 46481747#8 68668519#6 68668519#7 68668519#8 68668519#9 127693103#0 127693103#1 -167922072#1"/>
    </vehicle>
    <vehicle id="71" depart="35.50">
        <route edges="22904055#1 22904055#2 22904055#3 22904055#4 127693383#1 127693383#2 127693383#3 127693383#4 127693383#5 127693383#6 36806659#2 226041020 196117090#16 68668519#0 68668519#1 68668519#2 68668519#3 -5670600#0 195743343#0"/>
    </vehicle>
    <vehicle id="72" depart="36.00">
        <route edges="46139045#2 46139045#3 46139045#4 46139045#5 46139045#6 127693102#0 127693102#1 127693102#2 127693102#3 127693102#4 127693102#5 127693102#6 -5672434 5670924#0 5670924#1 5670924#2 195743164#1 34080149#0 34080149#1 -68668537#1 -68668537#0 -5670522 5672937#0"/>
    </vehicle>
    <vehicle id="73" depart="36.50">
        <route edges="5670009#4 22902608#0 22902608#1 22902608#2 22902608#3 22902608#4 -5670924#2 -5670924#1 -5670924#0 5672434 196117073 196117091#0 196117091#1 196117091#2 5671668#2 5671668#3"/>
    </vehicle>
    <vehicle id="74" depart="37.00">
        <route edges="-273019810#1 -273019810#0 -273019807 -36806903#1 -36806903#0 194926856#0 194926856#1 194926856#2 36806659#0 36806659#1 36806659#2 226041020 226041019 46581216#1 46581216#2 46581216#3 46581216#4 167923358#0 167923358#1 167923358#2 22898643#0 22898643#1 34080174#0 34080174#1 34080174#2 34080174#3 34080174#4 167923357 5670731#0 5670731#1"/>
    </vehicle>
    <vehicle id="75" depart="37.50">
        <route edges="194920158#4 194920158#5 194920158#6 5670846#10 5670846#11 5670846#12 5670846#13 167922071#0 167922071#1 167922071#2 167922071#3 167922071#4 167922071#5 167922071#6 167922071#7 167922071#8 167922071#9 167922076 35027229#0 35027229#1 35027229#2 35027229#3 35027229#4 35027229#5 46481747#8 46522006 5673231#0 5673231#1 68674968#3 68674968#4 68674965#0"/>
    </vehicle>
    <vehicle id="77" depart="38.50">
        <route edges="46522005#2 194926854#3 5670197#3 195743344#3 195743344#4 195743344#5 195743344#6 5670803#0 5670803#1 195743190 68668556 226041020 226041019 46581216#1 46581216#2 46581216#3 46581216#4 167923358#0 167923358#1 167923358#2 22898643#0 22898643#1 34080174#0 34080174#1 34080174#2 34080174#3 34080174#4 5670551#1 -5672937#0 5670522 68668537#0 5672710#0 -5670254#1 -5670254#0 -195743164#2"/>
    </vehicle>
    <vehicle id="78" depart="39.00">
        <route edges="5672211#2 156994961#0 196117090#7 196117090#8 196117090#9 196117090#10 196117090#11 196117090#12 196117090#13 196117090#14 196117090#15 196117090#16 68668519#0 68668519#1 68668519#2 68668519#3 68668519#4 68668519#5 68668519#6 68668519#7 68668519#8 68668519#9 127693103#0 127693103#1 127693103#2 127693103#3"/>
    </vehicle>
    <vehicle id="79" depart="39.50">
        <route edges="46538375#5 46538375#6 196116976#5 196116976#6 196116976#7 46443656#3 46443656#4 46443656#5 46443656#6 5671276#10 5671276#11 5671276#12 5671276#13 5671276#14 5671276#15 194926855#0 194926855#1 194926855#2 194926855#3 194926855#4 194926855#5 194926855#6 194926855#7 194926855#8 194926855#9 194926856#0 194926856#1 46490538#2 46490537#0 46490537#2 46490540#1-AddedOnRampEdge"/>
    </vehicle>
    <vehicle id="80" depart="40.00">
        <route edges="195743164#2 5670254#0 5670009#4 -68668537#1 -68668537#0 -5670522 5672937#0 5672937#1 5672937#2 5672937#3 5672937#4 5672937#5 5672937#6 5672937#7 196117051#0 196117051#1 196117051#2 196117051#3 196117051#4 196117051#5 196117051#6 5673380#0 5673380#1 -5671315#1 195743182#2 195743182#3 195743182#4 195743182#5 195743182#6 195743182#7 195743182#8 195743182#9 195743182#10 195743182#11 195743182#12 195743182#13 5670225#1 5670225#2 5670225#3 5670225#4"/>
    </vehicle>
    <vehicle id="81" depart="40.50">
        <route edges="68668552#0 68668552#1 22898643#0 22898643#1 34080174#0 34080174#1 34080174#2 34080174#3 34080174#4 167923357 5670731#0 5670731#1 5670731#2 5670924#1 5670924#2 195743164#1 195743164#2 195743164#3 195743164#4 195743164#5 5672851#14 5672851#15 5672851#16 5672851#17 5672851#18 5673523#0 5673523#1"/>
    </vehicle>
    <vehicle id="82" depart="41.00">
        <route edges="-195743208#4 -195743208#3 -195743208#2 -195743208#1 -195743208#0 5670803#0 5670803#1 195743190 68668556 5670836#0 5670836#1 5670836#2 5670836#3 5670836#4 5670836#5 5670836#6 5670836#7 5670836#8 5670836#9 5670836#10 5670836#11 5670836#12 5670836#13 5670836#14 5670836#15 196117091#0 196117091#1 196117091#2 195743555#3 195743555#4 22927373#5"/>
    </vehicle>
    <vehicle id="83" depart="41.50">
        <route edges="5672851#12 5672851#13 -195743164#5 -195743164#4 -195743164#3 -195743164#2 34080149#0 34080149#1 -68668537#1 -68668537#0 -5670522 5672937#0 5672937#1 5672937#2 5672937#3 5672937#4 5672937#5 -5671620#3 -5671620#2 -5671620#0 -116672333#7 196117090#9 196117090#10 196117090#11 196117090#12 196117090#13 196117090#14 196117090#15 196117090#16 68668519#0 68668519#1 68668519#2 68668519#3 68668519#4 68668519#5 68668519#6 68668519#7 68668519#8 68668519#9 226041022#0 226041022#1 226041022#2"/>
    </vehicle>
    <vehicle id="84" depart="42.00">
        <route edges="5673561#4 194926854#1 46481747#6 195743344#5 195743344#6 5670803#0 5670803#1 195743190 68668556 5670836#0 5670836#1 5670836#2 5670836#3 5670836#4 5670836#5 5670836#6 5670836#7 5670836#8 156994961#2 156994961#3"/>
    </vehicle>
    <vehicle id="85" depart="42.50">
        <route edges="5673231#1 5673231#2 68674961#2 68674961#3 68674961#4 68674961#5 68674961#6 68674960#0 68674960#1 -5672991#3 -5672991#2 -5672991#1 -5672991#0 -167922072#4 -167922072#3 -167922072#2 -167922072#1 -167922072#0 -167922076 -167922077#3 -167922077#2 -167922077#0 -68325079#1 46490540#12 226041024 46482616 46435621#0 46525058#1 68325079#0"/>
    </vehicle>
    <vehicle id="86" depart="43.00">
        <route edges="194923807#0 194923807#1 46201654#1 46201654#2 222299248#4 222299248#5 -5671620#6 -5671620#5 -5671620#4 -5671620#3 -5671620#2 -5671620#0 -116672333#7 -116672333#6 5670836#7 5670836#8 5670836#9 5670836#10 5670836#11 5670836#12 5670836#13 5670836#14 5670836#15"/>
    </vehicle>
    <vehicle id="88" depart="44.00">
        <route edges="5670867#3 195743336#9 195743336#10 195743336#11 195743336#12 195743336#13 195743336#14 195743336#15 5670124#0"/>
    </vehicle>
    <vehicle id="89" depart="44.50">
        <route edges="167923358#1 167923358#2 5672965#0 5672965#1 -116672333#7 196117090#9 196117090#10 196117090#11 5671311#9 5671311#10 5671311#11 167923358#0"/>
    </vehicle>
    <vehicle id="90" depart="45.00">