<?xml version="1.0" encoding="UTF-8"?>

<!-- generated on Wed Jul 30 21:36:02 2014 by SUMO duarouter Version 0.17.1
<?xml version="1.0" encoding="UTF-8"?>

<configuration xmlns:xsi="http://www.w3.org/2001/XMLSchema-instance" xsi:noNamespaceSchemaLocation="http://sumo.sf.net/xsd/duarouterConfiguration.xsd">

    <input>
        <net-file value="/home/pierpaolo/Scrivania/scriptMirco/scriptMirco/facilitatore/v0.4/v0.4/net/Parigi4/Parigi4.net.xml"/>
        <trip-files value="/home/pierpaolo/Scrivania/scriptMirco/scriptMirco/facilitatore/v0.4/v0.4/rou/Parigi4/Parigi4.trips.xml"/>
    </input>

    <output>
        <output-file value="/home/pierpaolo/Scrivania/scriptMirco/scriptMirco/facilitatore/v0.4/v0.4/rou/Parigi4/Parigi4.rou.xml"/>
    </output>

    <processing>
        <ignore-errors value="true"/>
    </processing>

    <time>
        <begin value="0.0"/>
        <end value="1000.0"/>
    </time>

</configuration>
-->

<routes xmlns:xsi="http://www.w3.org/2001/XMLSchema-instance" xsi:noNamespaceSchemaLocation="http://sumo.sf.net/xsd/routes_file.xsd">
    <vehicle id="0" depart="0.00">
        <route edges="-4081711#7 -4081711#6 -4081711#5 79653326 85076172#0 85076172#1 -4080699#2 -4080699#1 -4080699#0 -43904125#8 -43904125#7 -43904125#6 -43904125#5 -43904125#4 4018052#0 4018052#1 4018052#2 4018056#0 4018054#0 4018054#1 4018054#2 35980519#10 4039920#0 4039920#1 4039920#2 4039920#4 4039609 123461254#0 123461254#1 123461254#2 -59431665 -3630659#1 -3630659#0 -166755012#4 -166755012#3 -166755012#2 -166755012#0 1881556#0 1881556#1 1881556#2 1881556#3 1881556#4 1881556#5 1881556#6 23951283#0 23951283#1 23951283#2 58073040#0 58073040#1 56066066#0 56066066#1 4018272 123461250#1 239629032 -96828513 -4018270#1 -4018270#0 4018313 258608781#0 258608781#1 4018309#3 4018309#4"/>
    </vehicle>
    <vehicle id="1" depart="0.50">
        <route edges="237932372#9 4217198#0 4217198#1 4217179#3 4217179#4 -237932372#8 -237932372#7 -237932372#5 -237932372#4 -237932372#3 -237932372#1 -237932372#0 237932370#2 -25485138 -53799097#8 -53799097#7 -53799097#6 -53799097#5 -53799097#4 -53799097#3 -53799097#2 -53799097#1 -53799097#0 -2570 35980522#9 35980522#0 35980522#1 35980522#3 61509953 172841426#0 172841426#1 172841426#2 172841426#3 172841426#5 172841426#6 172841426#7 172841426#8 172841426#9 172841426#11 41486595#1 41486595#2 41486595#3 41486595#4 41486595#5 41486595#6 41486595#7 41486595#8 41486595#9 41486595#10 41486595#11 41486595#12 41486595#13 41486595#14 16289749#1 84193204 172813514"/>
    </vehicle>
    <vehicle id="2" depart="1.00">
        <route edges="215202698#0 215202698#1 215202698#2 172635654 -11288163#1 -11288163#0 11288145#1 11288145#2 11288145#3 11288253#0 11288253#1 56123405#0 56123405#1 56138076#2 56138076#3 85735933#0 85735933#1 -85735937#3 -85735937#1 -85735937#0 4039844#0 4039844#1 4039844#2 4039844#2-AddedOffRampEdge 4039844#3 4039844#4 4039844#5 4039844#6 35980522#3 35980522#4 31828464#0 31828464#1 172841427#1 172841427#2 35980522#6 35980522#7 35980522#8 2570 53799097#0 53799097#1 53799097#2 53799097#3 53799097#4 53799097#5 53799097#6 53799097#7 53799097#8 25485138 237932369#0 237932372#0 237932372#1 237932372#3 237932372#4 237932372#5"/>
    </vehicle>
    <vehicle id="3" depart="1.50">
        <route edges="23245276 -172841426#9 -172841426#8"/>
    </vehicle>
    <vehicle id="5" depart="2.50">
        <route edges="4039817#1 21346517#0 21346517#1 21346517#2 21346517#3 21346517#4 21346517#5 21346422 3630700 83873534#0 83873534#1 83873534#2 56064694#0 56064694#1 56064694#2 56064694#4 56064694#5 56064694#6 56064694#7 56064694#9"/>
    </vehicle>
    <vehicle id="6" depart="3.00">
        <route edges="79953347 166755012#4 3630659#0 3630659#1 59431665 4039845#0 4039845#1 4039845#2 4039466 -4039920#4 -4039920#2 -4039920#1 -4039920#0 -4040082 24675777#0 24675777#2 24675777#2-AddedOffRampEdge 24675777#3 24675777#4 197464535#0 197464535#1 37017809 35980522#7 35980522#8 2570 53799097#0 53799097#1 53799097#2 53799097#3 53799097#4 53799097#5 53799097#6 53799097#7 53799097#8 4039230#0 4039230#1 83120624#0 83120624#1 83120624#3 294799032#0 294799032#1 32529402 56640608#0 56640608#1 56640608#2 56640608#3 23047039 5209967#0 5209967#2 5209967#3 -257237341#2 -257237341#1"/>
    </vehicle>
    <vehicle id="7" depart="3.50">
        <route edges="-22946786 22946771 4039588#1 4039588#2 4039114 -237932372#7 -237932372#5 -237932372#4 -237932372#3 -237932372#1 -237932372#0 237932370#2 -25485138 35098117#0 35098117#1 83120629 35099250#0 35099250#1 35099250#2 35099250#3 35099250#4 35099250#5 -85320924 85320921#0 85320921#1 85320921#2 85320921#3 85320921#4 85320921#5"/>
    </vehicle>
    <vehicle id="8" depart="4.00">
        <route edges="-4039598#2 -4039598#1 -4039598#0 56064694#0 56064694#1 56064694#2 56064694#4 56064694#5 56064694#6 56064694#7 56064694#9 4018058 56671843#0 56671843#1 56671843#2 25485120#0 25485120#1 25485120#2 25485120#3 79946380 85735959 25470077#0 25470077#1 25470077#2 25470077#3 25470077#4 4039149#0 4039149#1 4039111 205227733 229233926 -142417902#1 -142417902#0"/>
    </vehicle>
    <vehicle id="13" depart="6.50">
        <route edges="169830971#0 169830971#1 169830971#2 169830971#3 -227727856#2 5103618#0 5103618#1 5103618#2 5103618#3 5103618#4 84193210#0 84193210#1 84193210#2 84193210#3 84193210#4 -23952082#3 -23952082#2 -23952082#1 -23952082#0 -183690086 -172813508#2 -172813508#1 84193205#0 84193205#1 169830963 169830958 30919511#1"/>
    </vehicle>
    <vehicle id="14" depart="7.00">
        <route edges="4080690#2 34372786 17043520 59854399#0 59854399#1 -4081711#5 79653326 85076172#0 85076172#1 -4080699#2 -4080699#1 -4080699#0 -43904125#8 -43904125#7 -43904125#6 -43904125#5 -43904125#4 4018052#0 4018052#1 4018052#2 4018056#0 4018054#0 4018054#1 4018054#2 35980519#10 24675767#0 24675767#1 31830181#0 4039472 56064694#6 56064694#7"/>
    </vehicle>
    <vehicle id="15" depart="7.50">
        <route edges="68907088#0 68907088#1 68907088#2 24846461#1 24846461#2 -4217124#3 -4217124#2 -4217124#1 -4217124#0 35099250#6 35099250#7 35099250#8 35099250#9 35099250#10 35099250#11 5209911#0 5209911#1 5209911#2 5209911#3 5209911#3-AddedOffRampEdge 5209911#4 5209911#5 -56640608#5 -56640608#4"/>
    </vehicle>
    <vehicle id="17" depart="8.50">
        <route edges="3599341#8 3599341#9 3599341#10 3599341#11 3599341#12 3630647 84416296#1 84416296#2 166755011#0 166755011#1 209282568#0 209282568#1 209282568#2 209282568#3 209282568#4 56760466#0 56760466#1 166755012#0 166755012#2 166755012#3 166755012#4 3630659#0 3630659#1 59431665 4039845#0 4039845#1 4039845#2 4039466 -4039920#4 -4039920#2 -4039920#1 -4039920#0 24675767#0 24675767#1 31830181#0 31830181#1 31830181#2 31830181#4 31830181#5 56064693#0 56064693#1 56064693#2 56064693#3 -4040097 -21346422 -21346517#5 -21346517#4 -21346517#3 23411280 -4039243#1"/>
    </vehicle>
    <vehicle id="18" depart="9.00">
        <route edges="-23416436#0 31829565 221095382 4039920#2 4039920#4 4039609 123461254#0 123461254#1 123461254#2 -59431665 -3630659#1 -3630659#0 -166755012#4 -166755012#3 -166755012#2 -166755012#0 1881556#0 1881556#1 1881556#2 1881556#3 1881556#4 1881556#5 1881556#6 23951283#0 23951283#1 23951283#2 58073040#0 58073040#1 56066066#0 56066066#1 4018272 123461250#1"/>
    </vehicle>
    <vehicle id="19" depart="9.50">
        <route edges="3599327#0 3599327#1 24664080#1 24664080#2 24664080#3 24664080#4 24664080#5 24664080#6 24664080#7 24664080#8 24664080#9 24664080#10 36941778 172841427#2 35980522#6 35980522#7 3630515 43904125#0 43904125#1 43904125#3 43904125#4 43904125#5 43904125#6 43904125#7 4080693#0 4080684#0 4080684#1"/>
    </vehicle>
    <vehicle id="21" depart="10.50">
        <route edges="56065703 4039920#4 4039609 123461254#0 123461254#1 123461254#2 -59431665 -3630659#1 -3630659#0 -166755012#4 -166755012#3 -166755012#2 -166755012#0 -56760466#1 -56760466#0 -209282568#4 -209282568#3 -209282568#2 -209282568#1 -209282568#0 -166755011#1 -166755011#0 -84416296#2 -84416296#1 -84416296#0 13455951#0 13455951#1 13455951#3 13455951#4 13455951#5 13455951#6 13455951#7 13455951#8 13455951#9 13455951#10 13455951#11 13455951#12 13455951#13 13455951#14 13455951#15 273240590#0 273240590#1 273240590#2 273240590#3 273240590#4 209282042#0 209282042#1 24514410#5 24514410#6 195204179"/>
    </vehicle>
    <vehicle id="22" depart="11.00">
        <route edges="209282042#0 209282042#1 209282042#2 209282042#3 209282042#4 57936272#0 57936272#1 57936272#2 57936272#3 57936272#3-AddedOffRampEdge 57936272#4 57936272#5 57936272#6 57936272#7 57936272#8 57936272#9 57936272#10 84193225#0 84193225#1 84193225#2 84193225#3 84193225#4 84193225#5 84193225#6 84193225#7 84193225#8 84193225#9 6063347#0 6063347#1 44004724#0 44004724#1 44004724#1-AddedOffRampEdge 44004724#2 28841275 172636182#0 172636182#1 6063337#0 6063337#1 6063337#2-AddedOnRampEdge 6063337#2 39363577#0 39363577#1 39363579#0 39363579#1 39363579#2 39363579#3 -6063084#5 -6063084#4 -6063084#3 -6063084#1 4039520 32529494#0 32529494#1 32529494#2 171902967 6063162#1"/>
    </vehicle>
    <vehicle id="23" depart="11.50">
        <route edges="4080693#0 4080693#1 4080694 215867957 4080701 56668518 22982585#0 22982585#1 22982585#2 4081711#7 4081711#8 4081711#9 4081711#10 25485138 237932369#0 237932372#0 237932372#1 237932372#3 4217133#0 4217130"/>
    </vehicle>
    <vehicle id="24" depart="12.00">
        <route edges="-31830587#1 4080687#1 -4081711#8 -4081711#7 -4081711#6 -4081711#5 79653326 85076172#0 85076172#1 -4080699#2 -4080699#1 -4080699#0 -43904125#8 -43904125#7 -43904125#6 -43904125#5 -43904125#4 4018052#0 4018052#1 4018052#2 4018056#0 4018054#0 4018054#1 4018054#2 35980519#10 4039920#0"/>
    </vehicle>
    <vehicle id="25" depart="12.50">
        <route edges="163694217#3 29064067#0 29064067#1 -3630659#1 -3630659#0 -166755012#4 -166755012#3 -166755012#2 -166755012#0 1881556#0 1881556#1 1881556#2 1881556#3 1881556#4 1881556#5 1881556#6 23951283#0 23951283#1 23951283#2 -23951296#4 -23951296#3 -23951296#2 -23951296#1 -23951296#0 3599341#5 3599341#6 3599341#7 224104973"/>
    </vehicle>
    <vehicle id="26" depart="13.00">
        <route edges="4217120#0 237932372#0 237932372#1 237932372#3 237932372#4 237932372#5 237932372#7 4081764#0 4081764#1 59853653 22946771 -4039588#0"/>
    </vehicle>
    <vehicle id="27" depart="13.50">
        <route edges="100895617#3 66320264 66320266 59854399#0 59854399#1 -4081711#5 79653326 85076172#0 85076172#1 -4080699#2 -4080699#1 -4080699#0 -43904125#8 -43904125#7 -43904125#6 -43904125#5 -43904125#4 4018052#0 4018052#1 4018052#2 4018056#0 4018054#0 4018054#1 4018054#2 35980519#10 4039920#0 4039920#1 4039920#2 4039920#4 4039609 123461254#0 123461254#1 123461254#2 -59431665 -3630659#1 -3630659#0 -166755012#4 -166755012#3 -166755012#2 -166755012#0 1881556#0 1881556#1 1881556#2 1881556#3 1881556#4 1881556#5 1881556#6 23951283#0 23951283#1 23951283#2 -23951296#4 -23951296#3 -23951296#2 -23951296#1 -23951296#0"/>
    </vehicle>
    <vehicle id="28" depart="14.00">
        <route edges="-154032849 4039601#1 3630660 29064067#0 29064067#1 -3630659#1 -3630659#0 -166755012#4 -166755012#3 -166755012#2 -166755012#0 1881556#0 1881556#1 1881556#2 1881556#3 1881556#4 1881556#5 1881556#6 23951283#0 23951283#1 23951283#2 58073040#0 58073040#1 56066066#0 56066066#1 4018272 123461250#1 239629032 -96828513 -4018270#1 16394113 24692802#1-AddedOnRampEdge 24692802#1 24692802#1-AddedOffRampEdge 30174232"/>
    </vehicle>
    <vehicle id="31" depart="15.50">
        <route edges="24412457#5 24412457#6 209282042#0 209282042#1 209282042#2 209282042#3 209282042#4 -41486595#14 -41486595#13 -41486595#12 -41486595#11 -41486595#10 -41486595#9 -41486595#8 -41486595#7 -41486595#6 -41486595#5 -41486595#4 -41486595#3 -41486595#2 -41486595#1 -172841426#11 -172841426#9 -172841426#8 -172841426#7 -172841426#6 -172841426#5 -172841426#3 -172841426#2 -172841426#1 -172841426#0 172841427#0 31828464#2 35980519#0 35980519#1 35980519#2 35980519#3 35980519#4 35980519#5 35980519#6 35980519#7 35980519#8 35980519#9 35980519#10 24675767#0 24675767#1 31830181#0 4039472 56064694#6 -22937733#1 22884685#0 22884685#1 -22937734#1 22884694#0 22884694#1"/>
    </vehicle>
    <vehicle id="32" depart="16.00">
        <route edges="-3599327#1 -3599327#0 172841426#7 23333345 3599327#1 84416296#0 84416296#1 84416296#2 166755011#0 166755011#1 209282568#0 209282568#1 209282568#2 209282568#3 209282568#4 56760466#0 56760466#1 166755012#0 166755012#2 166755012#3 166755012#4"/>
    </vehicle>
    <vehicle id="33" depart="16.50">
        <route edges="171930669#1 -4039520 6063084#1 6063084#3 6063084#4 6063084#5 23163059#0 23163059#1 23163059#2 85068501#0 85068501#1 85068501#2 39363581 32529500 -172635657#1 -172635657#0 6063198#1 6063198#2 6063198#3 11288459 165818767#0 165818767#1 22937936#1 22934762#0 22934762#1 -84193219 186227011#0 186227011#1 165814452#0 165814452#1 165814453#0 165814453#1 172852550"/>
    </vehicle>
    <vehicle id="34" depart="17.00">
        <route edges="56671843#1 56671843#2 -43904125#8 -43904125#7 -43904125#6 -43904125#5 -43904125#4 4018052#0 4018052#1 4018052#2 4018056#0 4018054#0 4018054#1 4018054#2 3630650#0 3630650#1 3630650#2 51689991#3 51689991#0 23416436#0"/>
    </vehicle>
    <vehicle id="36" depart="18.00">
        <route edges="209282568#4 56760466#0 56760466#1 166755012#0 166755012#2 166755012#3 166755012#4 3630659#0 3630659#1 59431665 4039845#0 4039845#1 4039845#2 166753100 4039450 255062648#0"/>
    </vehicle>
    <vehicle id="37" depart="18.50">
        <route edges="22884283#1 22884283#2 22884284 22884285#0 22884285#1 22884285#2 22884300 22884301#0 22884301#1 22884301#2 22884301#3 22937733#0 22937733#1 56064694#7 4040093 31830181#0 31830181#1 154059915 -4039706#0"/>
    </vehicle>
    <vehicle id="38" depart="19.00">
        <route edges="4018057#1 4018056#0 4018054#0 24675777#2 24675777#2-AddedOffRampEdge 24675777#3 24675777#4 197464535#0 197464535#1 37017809 35980522#7 35980522#8 2570 53799097#0 53799097#1 53799097#2 53799097#3 53799097#4 53799097#5 53799097#6 53799097#7 53799097#8"/>
    </vehicle>
    <vehicle id="39" depart="19.50">
        <route edges="-22937731#2 -22937731#1 -22884758 44800500#2 22883352 -44802901#0 167401873 22883357 255119528#0 255119528#1 -25470077#2 -25470077#1 -25470077#0 -85735959 -79946380 -25485120#3 -25485120#2 -25485120#1 -25485120#0 -43904125#8 -43904125#7 -43904125#6 -43904125#5 -43904125#4 -43904125#3 -43904125#1 -43904125#0 -3630515 35980522#8 35980522#9 4039862 53749410 -4039730 4081723#0 4081723#1 4081723#3 4081723#4 4081723#5 4081723#6 85735937#0 85735937#1 85735937#3 -85735933#1 -85735933#0 56138076#4 56138076#6 56138076#7 56138076#8 23952334#0 23952334#1 56123402 39363574#0 39363574#1 39363574#2 39363574#3 5219255#0"/>
    </vehicle>
    <vehicle id="40" depart="20.00">
        <route edges="209282042#2 209282042#3 209282042#4 -41486595#14 -41486595#13 -41486595#12 -41486595#11 -41486595#10 -41486595#9 -41486595#8 -41486595#7 -41486595#6 -41486595#5 -41486595#4 -41486595#3 -41486595#2 -41486595#1 -172841426#11 -172841426#9 -172841426#8 23333345 3599327#1 84416296#0 84416296#1 84416296#2 166755011#0 166755011#1 -154802893#4 -154802893#3 -154802893#1 -154802893#0 23416460 1881555#2 -23416436#0 51689991#2 -3630650#2 -3630650#1"/>
    </vehicle>
    <vehicle id="41" depart="20.50">
        <route edges="-257177777 5209973#1 5210012#0"/>
    </vehicle>
    <vehicle id="42" depart="21.00">
        <route edges="-4039588#1 -4039588#0 -17043537 17043520 59854399#0 59854399#1 -4081711#5 79653326 85076172#0 85076172#1 -4080699#2 -4080699#1 -4080699#0 -43904125#8 -43904125#7 -43904125#6 -43904125#5 -43904125#4 -43904125#3 -43904125#1 -43904125#0 -3630515 35980522#8 35980522#9 35980522#0 35980522#1 35980522#3 61509953 172841426#0 172841426#1 172841426#2 172841426#3 172841426#5 172841426#6 172841426#7 172841426#8 172841426#9 172841426#11 41486595#1 41486595#2 41486595#3 41486595#4 41486595#5 41486595#6 41486595#7 41486595#8 41486595#9 41486595#10 41486595#11 41486595#12 41486595#13 41486595#14 16289749#1 84193204 172813514 -172813516"/>
    </vehicle>
    <vehicle id="43" depart="21.50">
        <route edges="294799032#0 294799032#1 32529402 4039387#0 4039387#1 4081744 172858059 172857788#1 -83120624#3 -83120624#1 -83120624#0 -4039230#1 -4039230#0 -4081711#10 -4081711#9 -4081711#8 -4081711#7 -4081711#6 -4081711#5 79653326 85076166#0 79652228#1 4080703#2 -85076166#1"/>
    </vehicle>
    <vehicle id="45" depart="22.50">
        <route edges="10588190 -85735937#1 -85735937#0 4039844#0 4039844#1 4039844#2 4039844#2-AddedOffRampEdge 4039844#3 4039844#4 4039844#5 4039844#6 35980522#3 35980522#4 31828464#0 31828464#1 172841427#1 172841427#2 35980522#6 35980522#7 3630515 43904125#0 43904125#1 43904125#3 43904125#4 43904125#5 43904125#6 43904125#7 43904125#8 25485120#0 25485120#1 25485120#2 25485120#3 79946380 85735959 25470077#0 25470077#1 25470077#2 25470077#3 25470077#4 25470077#5 25470077#5-AddedOffRampEdge"/>
    </vehicle>
    <vehicle id="46" depart="23.00">
        <route edges="5210013#2 257147745#1 5209967#2 5209967#3 5209967#4 5209967#5 -35099250#8 -35099250#7 -35099250#6 -35099250#5 -35099250#4 -35099250#3 -35099250#2 -35099250#1 -35099250#0 4081763 35099251#0 35099251#1 -4039230#1 -4039230#0 -53799097#8 -53799097#7 -53799097#6 -53799097#5 -53799097#4 -53799097#3 -53799097#2 -53799097#1 -53799097#0 -2570 35980522#9 35980522#0 35980522#1 35980522#3 35980522#4 31828464#0 31828464#1 31828464#2 35980519#0 35980519#1 35980519#2 35980519#3 35980519#4 35980519#5 35980519#6 35980519#7 35980519#8 35980519#9 35980519#10 24675767#0 24675767#1 31830181#0 31830181#1 31830181#2 31830181#4 31830181#5 56064693#0 56064693#1 56064693#2 56064693#3 -4040097 -21346422 -21346517#5 -21346517#4 -21346517#3 23411280 -4039243#1 -4039243#0 -4039598#2"/>
    </vehicle>
    <vehicle id="47" depart="23.50">
        <route edges="6022630#1 -172857783 253867547#0 253867547#1 -294799047#3 -294799047#1 -294799047#0 -171930668 -23952334#0 -56138076#8 -56138076#7 -56138076#6 -56138076#4 -11288141#3 -11288141#2 -11288141#1 -11288141#0"/>
    </vehicle>
    <vehicle id="48" depart="24.00">
        <route edges="273240591#1 41361996#0 41361996#1 3599341#0 3599341#1 3599341#2 3599341#3 3599341#4 3599341#5 3599341#6 3599341#7 3599341#8 3599341#9 3599341#10 3599341#11 3599341#12 3599341#13 3599341#14 24664080#1 24664080#2 24664080#3 24664080#4 24664080#5 24664080#6 24664080#7 24664080#8 24664080#9 24664080#10 36941778 172841427#2 35980522#6 35980522#7 3630515 43904125#0 43904125#1 43904125#3 43904125#4 43904125#5 43904125#6 43904125#7 43904125#8 25485120#0 25485120#1 25485120#2 25485120#3 79946380 85735959 25470077#0 4039390#0 4039390#1 167401870 167401865 -44802901#3 -22883484 22884280 22884276#1 22884756 22884755#1"/>
    </vehicle>
    <vehicle id="50" depart="25.00">
        <route edges="34372786 17043520 59854399#0 59854399#1 4081711#6 4081711#7 4081711#8 4081711#9 4081711#10 4039230#0 4039230#1 83120624#0 83120624#1 83120624#3 6022630#0 6022630#1 -172857783 294799043 172857782 -4081740#2 -4081740#1"/>
    </vehicle>
    <vehicle id="51" depart="25.50">
        <route edges="-25485120#1 -25485120#0 -43904125#8 -43904125#7 -43904125#6 -43904125#5 -43904125#4"/>
    </vehicle>
    <vehicle id="52" depart="26.00">
        <route edges="-22883360 22937609#4 22947150#0 22947150#1 -22884008#2 -22884008#0 -22884301#1 -22884301#0 -22884300 -22884285#2 22884274#1 22937786#0 -22937732#6"/>
    </vehicle>
    <vehicle id="53" depart="26.50">
        <route edges="59431665 4039845#0 4039845#1 4039845#2 166753100 123461254#0 123461254#1 123461254#2 -59431665 -3630659#1 -3630659#0 -166755012#4 -166755012#3 -166755012#2 -166755012#0 1881556#0 1881556#1 1881556#2 1881556#3 1881556#4 1881556#5 1881556#6 23951283#0 23951283#1 23951283#2 -23951296#4 -23951296#3 -23951296#2 -23951296#1 -23951296#0 3599341#5 23397729#0"/>
    </vehicle>
    <vehicle id="55" depart="27.50">
        <route edges="54148973#2 54148973#3 22934762#0 22934762#1 -84193219 186227011#0 186227011#1 165814452#0 165814452#1 165814453#0 165814453#1 165814453#2 165814453#3 84193211#0 84193211#1 84193211#2 24514410#0 24514410#1 23951853#2"/>
    </vehicle>
    <vehicle id="56" depart="28.00">
        <route edges="-253882163#3 -253882163#2 172857786 51685820 -53799097#7 -53799097#6 -53799097#5 -53799097#4 -53799097#3 -53799097#2 -53799097#1 -53799097#0 -2570 35980522#9"/>
    </vehicle>
    <vehicle id="57" depart="28.50">
        <route edges="5210017 -5209987#2 -5209987#1 5209911#3 5209911#3-AddedOffRampEdge 5209911#4 5209911#5 -56640608#5 -56640608#4 11288541#0 11288541#2 11288541#3 171902967 6063162#1 6063162#2 6063162#3 85068501#0 85068501#1 85068501#2 -56123402 -23952334#1 -23952334#0 -56138076#8 -56138076#7 -56138076#6 -56138076#4 -56138076#3 -56138076#2 -56138076#1 -56138076#0 -157910468 3599327#0 3599327#1 84416296#0 84416296#1 84416296#2"/>
    </vehicle>
    <vehicle id="58" depart="29.00">
        <route edges="56064694#5 56064694#6 -22937733#1 -22937733#0 -22884301#3 22884688 22884689 -22884694#0"/>
    </vehicle>
    <vehicle id="59" depart="29.50">
        <route edges="24675777#2-AddedOffRampEdge 24675777#3 24675777#4 197464535#0 197464535#1 37017809 35980522#7 35980522#8 35980522#9 4039862 53749410 -4039730 4081723#0 4081723#1 4081723#3 4081723#4 4081723#5 4081723#6 85735937#0 85735937#1 85735937#3 -85735933#1 -85735933#0 56138076#4 56138076#6 56138076#7 56138076#8 23952334#0 23952334#1 56123402 39363566#4 39363570#0 39363570#1 39363570#2"/>
    </vehicle>
    <vehicle id="60" depart="30.00">
        <route edges="171927177#1 171927177#2 16290944#0 16290944#1 16290944#3 16290944#4 16290944#5 16290944#6 16290944#7 16290944#8 16290944#9 16290944#10 -56138076#8 -56138076#7 -56138076#6 -56138076#4 -56138076#3 -56138076#2 -56138076#1 -56138076#0 -157910468 172841426#7 172841426#8 172841426#9 172841426#11 41486595#1 41486595#2 41486595#3 41486595#4 41486595#5 41486595#6 41486595#7 41486595#8 41486595#9 41486595#10 41486595#11 41486595#12 41486595#13 41486595#14 24514410#0 24514410#1 24514410#2 24514410#3 24514410#4 24514410#5 24514410#6 195204179 209282041 195204175#0"/>
    </vehicle>
    <vehicle id="61" depart="30.50">
        <route edges="-23163063 6063162#3 85068501#0 85068501#1 85068501#2 39363581 32529500 -172635657#1 -172635657#0 6063198#1 6063198#2 6063198#3 11288459 165818767#0 165818767#1 22937936#1 22934762#0 22934762#1 -84193219 186227011#0 186227011#1 165814452#0 165814452#1 165814453#0 165814453#1 165814453#2 165814453#3 84193211#0 84193211#1 84193211#2 24514410#0 24514410#1 24514410#2 24514410#3 24514410#4 24514410#5 24514410#6 195204179 209282043#0 209282043#1 209282043#2 23951678#1 43840591#0 43840591#1 43840591#2 -273240591#1 -273240591#0 -56066065 -96828513 -4018270#1 16394113 24692802#1-AddedOnRampEdge 24692802#1 24692802#1-AddedOffRampEdge 30174232 30174231 30839612"/>
    </vehicle>
    <vehicle id="62" depart="31.00">
        <route edges="5103626 23782500#0 23782500#1 294840613 23782498 -5219257#1 -5219257#0 172636187#0 172636187#1 192218513 28841274#0 28841274#1 6063198#3 6063198#4 6063198#5 11288141#0 11288141#1 11288141#2 11288141#3 85735933#0 85735933#1 -85735937#3 -85735937#1 -85735937#0 4039844#0 4039844#1 4039844#2 4039844#2-AddedOffRampEdge 4039844#3 4039844#4 4039844#5 4039844#6 35980522#3 35980522#4 31828464#0 31828464#1 31828464#2 35980519#0 35980519#1 35980519#2 35980519#3 35980519#4 35980519#5 35980519#6 35980519#7 35980519#8 35980519#9 35980519#10 24675767#0 24675767#1 31830181#0 31830181#1 31830181#2 31830181#4 31830181#5 56064693#0 56064693#1 56064693#2 56064693#3 -4040097 -21346422 -21346517#5 -21346517#4 -21346517#3 -21346517#2"/>
    </vehicle>
    <vehicle id="63" depart="31.50">
        <route edges="-172841426#6 -172841426#5 -172841426#3 4081630 182573665 182573666 -24664080#3 -24664080#2 -24664080#1 84416296#0 84416296#1 84416296#2 166755011#0 166755011#1 209282568#0 209282568#1 209282568#2 209282568#3 209282568#4 56760466#0 56760466#1 166755012#0 166755012#2 23951224 79951200#0 79951200#1 23951218#0 23951218#1"/>
    </vehicle>
    <vehicle id="64" depart="32.00">
        <route edges="161126419#0 161126419#1 4080778#0 4080778#1 4080778#2 -3630703#1 53749410 -4039730 4081723#0 4081723#1 4081723#3 4081723#4 4081723#5 4081723#6 85735937#0 85735937#1 85735937#3 -85735933#1 58073260 171948839#0 171948839#1 171948849 10588201#3 171948832#0 174592129#0"/>
    </vehicle>
    <vehicle id="65" depart="32.50">
        <route edges="171948835#1 16290944#7 16290944#8 16290944#9 16290944#10 -56138076#8 -56138076#7 -56138076#6 -56138076#4 85735933#0 85735933#1 -85735937#3 -85735937#1 -85735937#0 4039844#0 4039844#1 4039844#2 4039844#2-AddedOffRampEdge 4039844#3 4039844#4 4039844#5 4039844#6 35980522#3 35980522#4 31828464#0 31828464#1 31828464#2 35980519#0 35980519#1 35980519#2 35980519#3 35980519#4 35980519#5 35980519#6 35980519#7 35980519#8 35980519#9 35980519#10 24675767#0"/>
    </vehicle>
    <vehicle id="66" depart="33.00">
        <route edges="172841426#0 172841426#1 172841426#2 4081630 182573665 182573666 24664080#4 24664080#5 24664080#6 24664080#7 24664080#8"/>
    </vehicle>
    <vehicle id="67" depart="33.50">
        <route edges="37106047#10-AddedOnRampEdge 37106047#10 37106047#11 -35099250#11 -35099250#10 -35099250#9 -35099250#8 -35099250#7 -35099250#6 -35099250#5 -35099250#4 -35099250#3 -35099250#2 -35099250#1 -35099250#0 4081763 35099251#0 35099251#1 -4039230#1 -4039230#0 -53799097#8 -53799097#7 -53799097#6 -53799097#5 -53799097#4 -53799097#3 -53799097#2 -53799097#1 -53799097#0 -2570 35980522#9 35980522#0 35980522#1 35980522#3 35980522#4 31828464#0 31828464#1 31828464#2 35980519#0 35980519#1 35980519#2 35980519#3 35980519#4 35980519#5 35980519#6 35980519#7 35980519#8 35980519#9 35980519#10 24675767#0 24675767#1 31830181#0 31830181#1 31830181#2 31830181#4 31830181#5 56064693#0 -27585929#2 -27585929#1 -27585929#0 -4039608#3"/>
    </vehicle>
    <vehicle id="69" depart="34.50">
        <route edges="27585929#0 27585929#1 27585929#2 56064694#0 56064694#1 56064694#2 56064694#4 56064694#5 56064694#6 56064694#7 56064694#9 56064694#10 24675777#0 24675777#2 24675777#2-AddedOffRampEdge 24675777#3 24675777#4 197464535#0 197464535#1 37017809 35980522#7 35980522#8 2570 53799097#0 53799097#1 53799097#2 53799097#3 53799097#4 53799097#5 53799097#6 53799097#7 53799097#8 4039230#0 4039230#1 83120624#0 83120624#1 83120624#3 294799032#0 294799032#1 32529402 56640608#0 56640608#1 56640608#2 56640608#3"/>
    </vehicle>
    <vehicle id="70" depart="35.00">
        <route edges="68907088#0 68907088#1 68907088#2 24846461#1 24846461#2 85068499 85068503#0 85068503#1 85068503#2 237932365 237932370#2 -25485138 -53799097#8 -53799097#7 -53799097#6 -53799097#5 -53799097#4 -53799097#3 -53799097#2 -53799097#1 -53799097#0 -2570 35980522#9 35980522#0 35980522#1 35980522#3 35980522#4 31828464#0 31828464#1 31828464#2 35980519#0 35980519#1 35980519#2 35980519#3 35980519#4 35980519#5 35980519#6 35980519#7 35980519#8 35980519#9 35980519#10 4039920#0 4039920#1 4039920#2 4039920#4 4039609 123461254#0 123461254#1 123461254#2 -59431665 -3630659#1 -3630659#0 -166755012#4 -166755012#3 -166755012#2 -166755012#0 -56760466#1 -56760466#0 -209282568#4 -209282568#3 -209282568#2 -209282568#1"/>
    </vehicle>
    <vehicle id="71" depart="35.50">
        <route edges="-172841426#8 -172841426#7 -172841426#6 -172841426#5 157936521"/>
    </vehicle>
    <vehicle id="72" depart="36.00">
        <route edges="16403210#2 22937936#0 22937936#1 22934762#0 22934762#1 -84193219 186227011#0 186227011#1 165814452#0 165814452#1 165814453#0 172813507#2 16360634#0 16360634#1 16360634#2 16360634#3 16360634#4 16360634#5 16360634#6 172841433 -172841426#8 -172841426#7 -172841426#6 -172841426#5 -172841426#3 4081630 182573665 182573666 24664080#4 24664080#5 3630643 -166755018#0"/>
    </vehicle>
    <vehicle id="73" depart="36.50">
        <route edges="16277826#7 16277826#8 16277826#9 16277826#10 16277826#11 16277826#12 -16277828#0 -5219257#1 -5219257#0 172636187#0 172636187#1 192218513 28841274#0 28841274#1 6063198#3 6063198#4 6063198#5 11288141#0 11288141#1 11288141#2 11288141#3 85735933#0 85735933#1 -85735937#3 -85735937#1 -85735937#0 4039844#0 4039844#1 4039844#2 4039844#2-AddedOffRampEdge 4039844#3 4039844#4 4039844#5 4039844#6 35980522#3 35980522#4 31828464#0 31828464#1 172841427#1 172841427#2 35980522#6 35980522#7 3630515 43904125#0 43904125#1 43904125#3 43904125#4 43904125#5 43904125#6 43904125#7 4080693#0 4080684#0 4080684#1 4080685#0 4080685#1 -181595248"/>
    </vehicle>
    <vehicle id="74" depart="37.00">
        <route edges="-56138076#3 -56138076#2 4081717#0 -4081720#0 -85735933#1 -85735933#0 56138076#4 56138076#6 56138076#7 56138076#8 23952334#0 23952334#1 56123402 39363579#0 39363579#1 39363579#2 39363579#3 -6063084#5 -6063084#4 -6063084#3 -6063084#1 4039520 -171930669#1 -171930669#0 32529472 56640608#0 56640608#1 56640608#2 56640608#3 56640608#4 204017817 21002395#2 21002395#3"/>
    </vehicle>
    <vehicle id="75" depart="37.50">
        <route edges="33771824#1 4040084 4040035#2 163694217#0 163694217#1 -3599326 -166755012#4 -166755012#3 -166755012#2 -166755012#0 -56760466#1 -56760466#0 -209282568#4 -209282568#3 -209282568#2 -209282568#1 -209282568#0 -166755011#1 -166755011#0 -84416296#2 -84416296#1 -84416296#0 -3599327#1 -3599327#0 157910468 56138076#0 56138076#1 56138076#2 56138076#3 56138076#4 56138076#6 56138076#7 56138076#8 172636184 107710257#0 107710257#1 107710244#0"/>
    </vehicle>
    <vehicle id="76" depart="38.00">