<?xml version="1.0" encoding="UTF-8"?>

<!-- generated on Wed Jul 30 21:34:21 2014 by SUMO polyconvert Version 0.17.1
<?xml version="1.0" encoding="UTF-8"?>

<configuration xmlns:xsi="http://www.w3.org/2001/XMLSchema-instance" xsi:noNamespaceSchemaLocation="http://sumo.sf.net/xsd/polyconvertConfiguration.xsd">

    <input>
        <net-file value="/home/pierpaolo/Scrivania/scriptMirco/scriptMirco/facilitatore/v0.4/v0.4/net/Parigi2/Parigi2.net.xml"/>
        <osm-files value="/home/pierpaolo/Scrivania/scriptMirco/scriptMirco/facilitatore/v0.4/v0.4/Parigi2.osm"/>
        <type-file value="requiredFiles/typemap_example.xml"/>
    </input>

    <output>
        <output-file value="/home/pierpaolo/Scrivania/scriptMirco/scriptMirco/facilitatore/v0.4/v0.4/net/Parigi2/Parigi2.poly.xml"/>
    </output>

    <pruning>
        <prune.in-net value="true"/>
    </pruning>

    <report>
        <verbose value="true"/>
    </report>

</configuration>
-->

<shapes>
    <poly id="100059387" type="leisure" color="207,245,201" fill="1" layer="-2.00" shape="1783.95,3010.55 1780.92,3018.59 1783.13,3020.01 1784.63,3021.43 1785.24,3022.59 1827.87,3038.88 1831.92,3028.72 1783.95,3010.55"/>
    <poly id="100183204" type="amenity" color="237,199,199" fill="1" layer="-1.00" shape="1591.14,2588.36 1592.11,2588.85 1597.02,2591.30 1594.48,2596.56 1594.84,2596.85 1626.27,2611.50 1631.03,2613.85 1637.97,2617.29 1645.79,2620.90 1647.66,2621.78 1650.56,2623.13 1652.47,2624.04 1666.02,2630.42 1667.27,2636.62 1671.40,2657.49 1672.86,2664.86 1674.13,2671.23 1675.51,2678.19 1678.80,2694.82 1680.75,2704.63 1676.93,2707.85 1669.11,2704.94 1660.07,2701.57 1653.52,2699.11 1646.97,2696.64 1630.96,2690.65 1617.51,2685.61 1603.10,2680.22 1587.63,2674.42 1577.26,2670.54 1565.49,2666.13 1552.71,2661.34 1550.25,2660.43 1547.29,2659.33 1539.48,2656.37 1535.59,2654.93 1532.31,2653.73 1521.26,2649.58 1518.80,2648.65 1513.27,2646.54 1513.24,2646.34 1523.18,2610.17 1523.30,2609.96 1531.02,2613.28 1549.55,2575.26 1555.82,2562.47 1556.10,2562.61 1562.90,2567.10 1568.24,2570.64 1565.58,2575.69 1588.57,2587.10 1591.14,2588.36"/>
    <poly id="100183214" type="tourism" color="207,245,201" fill="1" layer="-2.00" shape="1513.24,2646.34 1523.18,2610.17 1520.67,2609.07 1519.55,2611.66 1517.55,2610.81 1518.71,2608.22 1501.37,2600.76 1500.27,2602.94 1493.49,2599.72 1474.89,2630.52 1476.20,2633.68 1478.02,2632.79 1479.47,2635.86 1477.47,2636.77 1478.80,2640.01 1509.98,2645.38 1513.24,2646.34"/>
    <poly id="100184925" type="leisure" color="207,245,201" fill="1" layer="-2.00" shape="1702.45,2739.97 1695.06,2738.61 1695.56,2757.99 1697.61,2758.11 1701.70,2742.08 1702.45,2739.97"/>
    <poly id="100184931" type="building" color="255,230,230" fill="1" layer="-1.00" shape="2124.58,2860.27 2127.80,2858.62 2125.99,2855.28 2122.87,2856.87 2124.58,2860.27"/>
    <poly id="100184933" type="building" color="255,230,230" fill="1" layer="-1.00" shape="2106.17,2823.44 2108.63,2822.19 2108.16,2821.22 2108.85,2820.78 2105.45,2814.05 2102.24,2815.59 2105.78,2822.67 2106.17,2823.44"/>
    <poly id="100184936" type="building" color="255,230,230" fill="1" layer="-1.00" shape="2098.77,2808.64 2100.46,2807.73 2097.87,2802.65 2096.22,2803.53 2097.60,2806.29 2098.77,2808.64"/>
    <poly id="100184939" type="building" color="255,230,230" fill="1" layer="-1.00" shape="2118.85,2848.79 2122.14,2847.19 2120.11,2843.11 2116.86,2844.80 2118.85,2848.79"/>
    <poly id="100219735" type="building" color="255,230,230" fill="1" layer="-1.00" shape="2019.43,2822.64 2019.22,2828.48 2025.20,2828.69 2025.40,2822.85 2019.43,2822.64"/>
    <poly id="100885812" type="water" color="181,209,209" fill="1" layer="-4.00" shape="1264.63,2626.85 1263.39,2626.48 1261.82,2626.71 1260.74,2627.45 1260.01,2628.63 1259.86,2630.11 1260.59,2631.78 1262.00,2632.76 1263.56,2632.91 1264.98,2632.32 1266.05,2630.99 1266.25,2629.06 1265.68,2627.78 1264.63,2626.85"/>
    <poly id="100886166" type="building" color="255,230,230" fill="1" layer="-1.00" shape="1252.92,2626.74 1252.65,2626.45 1252.16,2626.43 1251.85,2626.74 1251.88,2627.22 1252.22,2627.51 1252.59,2627.49 1252.90,2627.20 1252.92,2626.74"/>
    <poly id="107104242" type="leisure" color="207,245,201" fill="1" layer="-2.00" shape="2190.58,878.89 2214.56,898.52 2203.44,911.18 2180.24,891.15 2190.58,878.89"/>
    <poly id="107944963" type="tourism" color="207,245,201" fill="1" layer="-2.00" shape="686.77,3056.15 675.15,3014.97 672.33,3004.97 680.95,2999.60 685.05,2994.49 717.32,3004.84 714.90,3012.44 711.43,3011.49 695.25,3021.74 688.43,3044.75 691.14,3055.45 686.77,3056.15"/>
    <poly id="116004919" type="leisure" color="207,245,201" fill="1" layer="-2.00" shape="1415.37,1314.05 1416.39,1301.26 1442.21,1303.29 1441.19,1316.08 1415.37,1314.05"/>
    <poly id="116004919#1" type="sport" color="79,230,125" fill="1" layer="-2.00" shape="1415.37,1314.05 1416.39,1301.26 1442.21,1303.29 1441.19,1316.08 1415.37,1314.05"/>
    <poly id="116016239" type="military" color="153,153,92" fill="1" layer="-3.00" shape="908.84,2479.88 908.41,2480.03 901.56,2475.74 899.23,2457.43 896.23,2457.80 894.71,2446.77 895.21,2446.68 892.09,2423.92 888.09,2394.69 887.56,2394.75 887.43,2393.71 886.18,2383.75 889.21,2383.34 887.84,2373.18 886.50,2363.28 891.06,2356.80 971.91,2338.56 978.70,2343.41 979.81,2348.45 983.00,2362.83 984.40,2369.08 985.43,2373.67 987.15,2381.44 987.89,2384.80 987.39,2384.93 990.69,2399.80 994.85,2418.55 995.39,2418.44 996.26,2422.37 997.86,2429.56 998.81,2433.81 999.67,2437.62 1000.84,2442.98 1002.17,2449.14 955.94,2464.44 952.84,2465.40 908.84,2479.88"/>
    <poly id="116016244" type="leisure" color="207,245,201" fill="1" layer="-2.00" shape="932.86,2438.10 929.25,2421.87 958.02,2415.41 961.42,2431.71 932.86,2438.10"/>
    <poly id="116016244#1" type="sport" color="79,230,125" fill="1" layer="-2.00" shape="932.86,2438.10 929.25,2421.87 958.02,2415.41 961.42,2431.71 932.86,2438.10"/>
    <poly id="116016727" type="building" color="255,230,230" fill="1" layer="-1.00" shape="908.84,2479.88 905.22,2468.84 948.68,2454.54 999.67,2437.62 1000.84,2442.98 1002.17,2449.14 955.94,2464.44 952.84,2465.40 908.84,2479.88"/>
    <poly id="118528604" type="building" color="255,230,230" fill="1" layer="-1.00" shape="388.16,1141.42 387.84,1079.11 387.71,1062.11 426.30,1068.32 425.79,1078.31 425.51,1083.86 429.01,1083.96 428.97,1084.48 431.37,1084.79 430.78,1088.89 427.11,1088.58 426.57,1088.54 425.28,1088.54 406.54,1085.48 406.11,1087.71 401.74,1087.71 401.95,1118.19 390.71,1118.28 390.96,1141.25 388.16,1141.42"/>
    <poly id="118528607" type="amenity" color="237,199,199" fill="1" layer="-1.00" shape="421.44,1169.46 421.45,1149.60 421.53,1140.80 427.15,1140.72 427.13,1136.71 431.37,1136.65 431.39,1138.31 432.75,1138.28 433.60,1139.14 433.62,1140.64 437.14,1140.57 437.10,1173.97 437.88,1174.02 437.99,1180.50 438.46,1180.50 438.52,1185.74 433.15,1185.68 433.13,1186.53 425.55,1186.53 425.56,1185.64 420.08,1185.66 420.12,1180.50 420.25,1173.54 421.52,1173.48 421.44,1169.46"/>
    <poly id="118528607#1" type="building" color="255,230,230" fill="1" layer="-1.00" shape="421.44,1169.46 421.45,1149.60 421.53,1140.80 427.15,1140.72 427.13,1136.71 431.37,1136.65 431.39,1138.31 432.75,1138.28 433.60,1139.14 433.62,1140.64 437.14,1140.57 437.10,1173.97 437.88,1174.02 437.99,1180.50 438.46,1180.50 438.52,1185.74 433.15,1185.68 433.13,1186.53 425.55,1186.53 425.56,1185.64 420.08,1185.66 420.12,1180.50 420.25,1173.54 421.52,1173.48 421.44,1169.46"/>
    <poly id="118767352" type="tourism" color="207,245,201" fill="1" layer="-2.00" shape="2592.21,1135.86 2637.12,1163.00 2639.34,1156.98 2644.02,1144.26 2651.04,1125.16 2658.18,1105.73 2655.71,1104.52 2640.66,1097.19 2627.78,1090.92 2621.84,1088.02 2618.68,1086.47 2592.21,1135.86"/>
    <poly id="121903823" type="landuse" color="194,194,130" fill="1" layer="-3.00" shape="255.65,2396.13 255.49,2382.23 256.96,2380.47 258.66,2379.22 261.16,2378.14 263.82,2377.01 264.68,2376.79 270.91,2376.39 277.55,2376.15 279.93,2376.72 281.30,2377.52 281.75,2379.22 281.47,2380.81 280.50,2382.51 278.74,2383.59 275.96,2384.61 273.13,2385.46 270.18,2386.31 267.91,2387.51 265.98,2388.93 264.22,2390.11 262.80,2391.64 261.33,2392.95 260.25,2394.02 259.23,2394.88 258.15,2395.62 256.56,2396.01 255.65,2396.13"/>
    <poly id="121903826" type="landuse" color="194,194,130" fill="1" layer="-3.00" shape="260.42,2430.90 262.63,2429.93 264.27,2428.97 265.58,2428.12 267.17,2426.87 268.36,2425.79 269.44,2424.83 271.37,2422.84 273.41,2420.41 275.22,2418.19 276.87,2415.65 278.80,2412.52 280.05,2409.68 281.18,2406.74 282.03,2403.73 282.49,2401.00 282.94,2398.23 283.28,2395.67 283.11,2394.08 282.03,2393.18 280.67,2392.89 279.31,2393.00 278.52,2393.52 277.27,2394.65 276.36,2395.95 275.79,2397.26 275.23,2399.13 275.00,2400.89 274.43,2403.73 273.80,2405.88 272.79,2408.10 271.77,2410.25 270.34,2412.29 268.70,2414.51 266.77,2417.23 264.96,2419.11 262.86,2420.80 260.76,2422.85 259.17,2424.83 258.26,2426.30 257.93,2428.12 258.26,2429.43 259.28,2430.56 260.42,2430.90"/>
    <poly id="122386227" type="building" color="255,230,230" fill="1" layer="-1.00" shape="441.02,2469.45 454.09,2464.21 448.89,2451.22 435.78,2456.46 441.02,2469.45"/>
    <poly id="122387548" type="building" color="255,230,230" fill="1" layer="-1.00" shape="421.22,2424.93 419.67,2421.01 421.44,2420.31 409.10,2389.07 412.49,2387.73 411.19,2384.44 416.42,2382.37 417.75,2385.74 447.64,2373.94 445.55,2368.65 462.92,2361.80 485.88,2352.73 487.27,2356.24 492.47,2354.20 503.10,2381.12 497.90,2383.18 501.15,2391.40 475.90,2401.36 476.59,2403.10 449.82,2413.67 449.16,2412.00 425.64,2421.29 426.29,2422.93 421.22,2424.93"/>
    <poly id="122387552" type="building" color="255,230,230" fill="1" layer="-1.00" shape="426.29,2422.93 449.82,2413.67 449.16,2412.00 425.64,2421.29 426.29,2422.93"/>
    <poly id="122411591" type="amenity" color="237,199,199" fill="1" layer="-1.00" shape="1094.30,2940.24 1021.08,2879.18 1002.68,2901.16 981.03,2882.92 999.31,2861.06 992.15,2855.08 973.73,2876.86 964.88,2869.67 963.39,2874.92 944.39,2886.15 940.59,2911.74 924.05,2913.38 908.40,2918.10 927.74,2979.82 952.12,2998.90 957.39,2999.48 1091.17,2949.51 1094.85,2943.22 1094.30,2940.24"/>
    <poly id="122412899" type="amenity" color="237,199,199" fill="1" layer="-1.00" shape="1366.30,1721.69 1375.04,1725.72 1386.59,1731.23 1399.12,1737.21 1405.24,1740.13 1409.29,1747.20 1411.60,1774.96 1412.74,1788.63 1401.33,1794.77 1395.69,1797.82 1390.74,1800.50 1365.05,1814.47 1362.56,1815.84 1336.06,1830.23 1316.61,1840.30 1309.39,1832.35 1291.79,1843.70 1287.59,1839.56 1281.10,1833.18 1282.54,1823.70 1290.08,1774.11 1293.49,1771.80 1293.77,1772.22 1306.25,1763.50 1366.30,1721.69"/>
    <poly id="122541476" type="landuse" color="194,194,130" fill="1" layer="-3.00" shape="313.08,2225.79 349.93,2208.33 351.99,2207.10 354.16,2205.55 354.78,2203.80 302.34,2200.80 301.38,2200.85 300.75,2201.38 300.65,2202.44 301.33,2203.98 309.68,2224.33 310.37,2225.22 311.42,2225.75 312.43,2225.96 313.08,2225.79"/>
    <poly id="122541477" type="landuse" color="194,194,130" fill="1" layer="-3.00" shape="373.71,2237.55 382.53,2233.38 383.06,2232.68 383.06,2231.63 382.11,2231.21 380.26,2231.32 372.86,2232.05 372.01,2232.42 372.33,2233.22 372.97,2234.75 372.81,2235.33 371.27,2235.70 370.26,2237.25 370.43,2237.64 373.15,2236.37 373.71,2237.55"/>
    <poly id="122541478" type="landuse" color="194,194,130" fill="1" layer="-3.00" shape="390.29,2219.71 393.98,2219.17 397.13,2218.29 400.78,2217.00 403.59,2215.55 405.48,2214.37 406.43,2213.28 407.01,2212.16 406.90,2210.67 406.22,2209.19 405.04,2207.87 403.38,2206.86 400.37,2206.68 379.54,2205.61 378.32,2206.59 377.58,2208.04 377.78,2209.59 378.45,2211.05 380.08,2212.97 383.12,2216.08 386.64,2218.62 389.14,2219.71 390.29,2219.71"/>
    <poly id="122541479" type="landuse" color="194,194,130" fill="1" layer="-3.00" shape="402.37,2218.04 396.65,2220.35 393.10,2221.20 391.72,2222.25 391.14,2223.84 391.51,2225.66 392.56,2227.12 394.35,2227.53 395.61,2227.11 398.95,2225.56 410.35,2220.42 411.63,2220.42 412.45,2221.13 412.92,2222.35 413.80,2224.95 414.48,2226.14 415.83,2226.50 417.69,2226.17 413.90,2216.96 413.86,2216.79 403.60,2221.60 403.37,2221.14 403.69,2220.96 402.37,2218.04"/>
    <poly id="122541480" type="landuse" color="194,194,130" fill="1" layer="-3.00" shape="344.95,2226.50 346.06,2224.18 347.34,2222.59 348.92,2221.43 350.98,2221.01 352.94,2221.43 354.94,2222.12 355.90,2222.28 356.95,2221.90 357.27,2221.17 357.32,2220.11 356.58,2219.32 354.84,2218.67 351.72,2217.93 349.23,2218.20 347.28,2218.79 345.16,2220.16 343.90,2221.37 342.84,2223.28 342.26,2225.34 342.52,2226.40 343.00,2227.03 343.95,2227.14 344.64,2226.98 344.95,2226.50"/>
    <poly id="122541481" type="landuse" color="194,194,130" fill="1" layer="-3.00" shape="327.33,2234.97 324.93,2235.80 326.25,2239.71 326.30,2240.67 325.51,2241.20 324.55,2240.93 324.24,2240.35 323.92,2238.81 323.08,2235.75 323.13,2234.80 323.55,2233.53 324.40,2232.52 325.72,2231.68 328.15,2230.26 330.31,2228.29 332.85,2226.29 334.49,2225.56 336.34,2225.61 337.29,2226.66 338.19,2229.19 330.21,2231.68 330.85,2232.98 331.00,2233.70 328.83,2234.36 328.58,2233.66 327.63,2233.98 327.88,2234.86 327.33,2234.97"/>
    <poly id="122541482" type="landuse" color="194,194,130" fill="1" layer="-3.00" shape="371.54,2227.03 373.65,2227.77 376.51,2227.98 379.42,2227.93 381.52,2228.25 383.16,2229.30 384.17,2230.84 385.17,2231.90 386.76,2232.05 388.19,2231.68 389.29,2230.47 390.09,2228.51 390.14,2226.45 389.45,2224.18 388.08,2222.64 385.92,2221.06 382.59,2218.73 378.99,2215.72 377.46,2213.45 375.71,2212.39 373.23,2212.33 370.43,2213.08 366.52,2215.77 365.36,2217.25 364.88,2219.79 365.57,2221.79 366.94,2223.86 369.00,2225.44 371.54,2227.03"/>
    <poly id="122541483" type="landuse" color="194,194,130" fill="1" layer="-3.00" shape="351.03,2216.62 354.68,2217.79 356.32,2217.88 358.06,2217.84 359.22,2217.26 359.97,2215.93 360.13,2213.98 359.12,2212.12 357.17,2210.44 354.84,2209.80 352.25,2210.12 349.71,2211.38 310.02,2230.84 311.56,2233.21 312.56,2234.11 314.15,2234.00 317.26,2233.53 320.85,2232.48 324.29,2230.89 326.94,2228.99 329.74,2226.66 332.64,2224.49 334.70,2223.70 338.40,2222.70 340.30,2222.23 341.47,2221.43 343.21,2219.63 344.95,2217.88 347.18,2216.94 349.77,2216.31 351.03,2216.62"/>
    <poly id="122541484" type="landuse" color="194,194,130" fill="1" layer="-3.00" shape="351.40,2292.01 361.93,2288.72 363.66,2287.31 364.49,2285.49 364.82,2283.18 364.65,2278.80 359.21,2252.71 358.55,2251.14 357.39,2250.56 355.74,2250.56 353.75,2250.15 352.35,2249.25 351.36,2248.58 336.99,2252.87 336.16,2250.53 335.80,2249.42 333.63,2250.03 333.89,2250.73 332.85,2251.03 332.59,2250.25 332.08,2250.38 329.77,2251.40 328.59,2248.02 328.00,2247.50 327.45,2247.63 326.94,2248.10 326.99,2248.94 331.00,2260.62 331.98,2261.46 333.07,2262.10 334.38,2262.26 335.78,2262.31 337.43,2262.30 339.84,2262.64 342.21,2263.49 344.68,2265.24 347.78,2267.72 349.43,2270.82 352.94,2282.38 352.12,2284.44 348.29,2286.20 349.62,2290.78 350.97,2290.44 351.40,2292.01"/>
    <poly id="122541562" type="landuse" color="194,194,130" fill="1" layer="-3.00" shape="278.29,2349.47 279.15,2348.41 278.62,2301.18 278.29,2297.94 277.36,2296.22 276.17,2294.90 274.66,2293.85 272.81,2292.98 270.82,2292.86 268.84,2293.72 267.91,2294.77 266.79,2297.08 265.87,2299.93 247.50,2343.99 247.50,2346.03 247.76,2347.49 248.96,2348.88 249.95,2349.73 251.66,2350.00 253.77,2349.93 278.29,2349.47"/>
    <poly id="122541994" type="landuse" color="194,194,130" fill="1" layer="-3.00" shape="320.54,2323.65 323.33,2322.40 347.68,2380.91 336.43,2386.16 331.11,2375.34 333.95,2373.84 333.60,2372.77 337.67,2371.35 330.91,2355.96 332.69,2355.06 327.15,2341.88 325.48,2342.77 320.72,2332.13 316.51,2334.01 315.18,2331.47 302.44,2337.23 303.55,2340.22 299.23,2342.10 303.21,2352.18 300.89,2353.29 306.76,2366.26 309.08,2364.93 314.41,2377.78 301.33,2379.99 296.47,2380.43 296.34,2376.34 301.35,2376.30 301.20,2371.46 296.23,2371.48 296.25,2371.98 294.13,2371.99 294.35,2335.40 294.03,2299.30 294.20,2298.33 294.83,2297.99 295.76,2298.07 296.40,2298.37 301.13,2302.09 303.54,2303.87 304.43,2304.08 305.49,2304.12 306.67,2304.04 307.81,2303.78 310.90,2302.39 311.91,2302.73 320.54,2323.65"/>
    <poly id="122541997" type="landuse" color="194,194,130" fill="1" layer="-3.00" shape="310.95,2300.60 296.86,2267.50 296.27,2266.91 295.21,2267.04 294.58,2267.50 294.37,2268.69 293.86,2293.77 294.58,2295.24 295.89,2296.55 297.54,2297.44 299.44,2298.54 301.00,2299.76 302.82,2301.20 303.97,2302.14 305.23,2302.38 306.63,2302.30 307.90,2302.05 310.95,2300.60"/>
    <poly id="122542178" type="landuse" color="194,194,130" fill="1" layer="-3.00" shape="239.06,2191.92 237.52,2195.47 236.94,2198.80 237.10,2202.35 237.84,2205.56 239.27,2208.95 241.49,2211.75 246.93,2216.56 249.31,2219.57 251.05,2222.96 252.32,2226.49 253.27,2230.72 253.48,2235.59 251.95,2243.88 250.84,2247.22 249.15,2250.22 247.19,2253.13 244.66,2255.30 242.12,2257.25 241.01,2258.52 240.11,2263.61 239.86,2267.75 271.48,2267.41 279.02,2272.96 298.38,2263.55 269.29,2196.51 265.16,2193.40 239.06,2191.92"/>
    <poly id="122543063" type="landuse" color="194,194,130" fill="1" layer="-3.00" shape="296.59,2384.20 316.84,2381.19 320.21,2379.59 328.72,2393.96 348.79,2383.58 349.95,2386.37 338.47,2392.82 333.82,2395.45 329.19,2398.06 327.35,2399.08 326.69,2399.47 320.13,2388.18 311.26,2392.18 300.13,2397.27 299.00,2397.31 298.08,2397.08 297.36,2396.63 296.91,2396.08 296.61,2395.55 296.49,2394.76 296.49,2393.87 296.49,2393.15 293.18,2389.73 296.59,2384.20"/>
    <poly id="122543064" type="landuse" color="194,194,130" fill="1" layer="-3.00" shape="329.87,2389.44 335.37,2386.69 329.96,2375.96 324.37,2378.80 329.87,2389.44"/>
    <poly id="122574233" type="amenity" color="237,199,199" fill="1" layer="-1.00" shape="364.68,2159.35 593.26,2172.65 596.59,2168.91 595.57,2160.94 588.82,2109.09 589.29,2109.05 587.49,2095.15 587.83,2095.08 586.59,2085.70 586.23,2085.75 584.43,2071.90 583.96,2071.98 580.11,2042.58 577.05,2019.17 576.15,2012.05 571.79,2009.39 463.19,2046.79 354.34,2084.26 352.80,2086.88 362.47,2157.30 364.68,2159.35"/>
    <poly id="123463802" type="amenity" color="237,199,199" fill="1" layer="-1.00" shape="3158.74,2688.95 3141.53,2675.30 3132.72,2668.95 3118.44,2656.49 3114.71,2653.46 3106.91,2647.09 3098.67,2640.40 3090.88,2634.06 3084.93,2629.21 3081.50,2626.43 3064.68,2612.78 3051.20,2629.64 3071.74,2646.21 3078.21,2651.48 3086.16,2657.93 3094.53,2664.68 3101.93,2670.68 3105.77,2673.78 3117.73,2683.44 3104.41,2700.48 3092.99,2691.10 3085.40,2701.41 3078.73,2710.48 3089.43,2719.13 3085.54,2723.96 3060.25,2755.25 3056.77,2759.59 3053.52,2763.63 3050.65,2767.17 3052.83,2768.85 3051.32,2770.77 3061.84,2779.05 3074.81,2788.91 3079.13,2792.48 3114.37,2822.22 3119.09,2816.95 3222.19,2903.11 3225.98,2906.27 3228.15,2903.65 3231.11,2900.05 3234.49,2895.90 3250.78,2875.85 3263.33,2860.42 3275.54,2870.29 3283.54,2861.50 3291.75,2852.47 3290.15,2851.16 3278.58,2841.65 3292.03,2825.12 3314.79,2844.31 3315.70,2845.08 3325.53,2853.39 3331.64,2858.52 3342.65,2867.81 3345.87,2870.53 3324.13,2883.67 3321.51,2878.97 3319.47,2875.34 3302.43,2889.64 3287.63,2901.77 3301.30,2916.93 3315.96,2909.19 3339.64,2896.15 3357.17,2885.70 3398.21,2861.57 3429.82,2837.00 3445.47,2820.97 3452.79,2818.59 3452.42,2817.89 3451.96,2816.69 3451.65,2815.52 3451.38,2814.29 3451.25,2813.07 3451.26,2811.85 3451.40,2810.60 3451.65,2809.43 3453.22,2803.26 3451.33,2796.37 3440.40,2799.32 3422.86,2804.04 3424.11,2809.28 3412.20,2818.78 3407.35,2822.53 3404.17,2820.49 3400.16,2818.17 3395.41,2816.28 3389.93,2815.09 3384.54,2814.69 3378.28,2815.13 3375.91,2815.80 3372.00,2816.86 3365.87,2819.43 3364.62,2820.30 3361.85,2822.13 3358.43,2824.90 3353.96,2829.84 3344.88,2840.36 3339.87,2836.22 3331.96,2829.82 3328.77,2827.22 3306.91,2809.47 3299.28,2803.27 3158.74,2688.95"/>
    <poly id="123463822" type="building" color="255,230,230" fill="1" layer="-1.00" shape="3055.70,2765.31 3053.52,2763.63 3056.77,2759.59 3060.25,2755.25 3062.40,2756.98 3058.91,2761.32 3055.70,2765.31"/>
    <poly id="124080880" type="building" color="255,230,230" fill="1" layer="-1.00" shape="1293.62,1935.94 1290.02,1931.94 1287.58,1929.96 1271.61,1916.96 1265.98,1912.37 1275.57,1900.80 1281.40,1905.45 1277.17,1910.50 1279.61,1912.44 1279.46,1912.59 1284.10,1916.32 1282.69,1918.14 1288.70,1922.95 1289.58,1921.70 1292.13,1923.57 1291.11,1924.94 1295.77,1928.74 1297.68,1927.11 1294.80,1923.87 1296.62,1922.30 1301.54,1927.82 1293.62,1935.94"/>
    <poly id="124080881" type="leisure" color="207,245,201" fill="1" layer="-2.00" shape="1254.45,1852.86 1246.72,1862.16 1240.54,1869.61 1261.12,1886.33 1256.71,1891.75 1261.79,1895.74 1283.06,1870.05 1277.92,1865.60 1275.18,1869.00 1254.45,1852.86"/>
    <poly id="124080882" type="building" color="255,230,230" fill="1" layer="-1.00" shape="1309.16,1953.17 1302.85,1946.17 1293.62,1935.94 1301.54,1927.82 1317.68,1945.91 1309.16,1953.17"/>
    <poly id="124081372" type="amenity" color="237,199,199" fill="1" layer="-1.00" shape="1303.84,2880.84 1306.23,2895.35 1317.38,2893.52 1316.86,2896.74 1341.65,2899.47 1341.07,2904.68 1343.37,2905.02 1342.96,2908.88 1337.36,2908.28 1337.19,2910.68 1336.84,2915.78 1336.45,2920.66 1334.86,2938.86 1363.19,2942.44 1365.36,2940.26 1358.39,2873.97 1355.94,2872.15 1349.00,2873.26 1339.74,2876.87 1335.87,2878.38 1333.63,2874.75 1316.84,2878.65 1303.84,2880.84"/>
    <poly id="126664508" type="building" color="255,230,230" fill="1" layer="-1.00" shape="867.58,1736.30 869.55,1735.45 868.80,1733.58 866.79,1734.45 867.58,1736.30"/>
    <poly id="126664509" type="building" color="255,230,230" fill="1" layer="-1.00" shape="805.74,1760.58 807.73,1759.71 808.54,1761.61 806.53,1762.46 805.74,1760.58"/>
    <poly id="126664510" type="building" color="255,230,230" fill="1" layer="-1.00" shape="846.34,1745.47 848.30,1744.60 847.56,1742.73 845.55,1743.60 846.34,1745.47"/>
    <poly id="126664511" type="building" color="255,230,230" fill="1" layer="-1.00" shape="907.40,1719.28 909.36,1718.42 908.61,1716.55 906.61,1717.42 907.40,1719.28"/>
    <poly id="126664513" type="building" color="255,230,230" fill="1" layer="-1.00" shape="932.80,1708.51 934.76,1707.66 934.02,1705.79 932.01,1706.66 932.80,1708.51"/>
    <poly id="126664514" type="building" color="255,230,230" fill="1" layer="-1.00" shape="954.07,1699.36 956.03,1698.51 955.29,1696.64 953.29,1697.51 954.07,1699.36"/>
    <poly id="126664515" type="building" color="255,230,230" fill="1" layer="-1.00" shape="886.14,1728.39 888.11,1727.53 887.36,1725.66 885.35,1726.53 886.14,1728.39"/>
    <poly id="126664516" type="building" color="255,230,230" fill="1" layer="-1.00" shape="827.78,1753.39 829.75,1752.53 829.01,1750.66 827.00,1751.54 827.78,1753.39"/>
    <poly id="126664517" type="building" color="255,230,230" fill="1" layer="-1.00" shape="974.51,1688.36 975.35,1690.21 976.32,1690.48 977.73,1689.81 976.64,1687.43 974.51,1688.36"/>
    <poly id="129007874" type="leisure" color="207,245,201" fill="1" layer="-2.00" shape="2252.58,854.87 2253.49,858.00 2255.66,858.33 2257.18,857.03 2261.38,854.11 2277.23,853.78 2278.14,850.43 2264.95,839.59 2257.09,846.97 2252.58,854.87"/>
    <poly id="133331808" type="building" color="255,230,230" fill="1" layer="-1.00" shape="2463.70,1284.98 2463.63,1285.35 2459.41,1308.07 2454.40,1307.10 2443.57,1304.99 2440.53,1304.41 2438.06,1300.04 2439.26,1296.56 2441.28,1290.71 2445.38,1278.81 2447.49,1279.50 2452.89,1281.22 2451.81,1284.61 2453.41,1285.19 2452.53,1287.71 2453.36,1287.95 2452.69,1290.11 2451.76,1289.85 2449.74,1295.70 2451.83,1296.40 2456.39,1291.00 2456.89,1287.59 2455.88,1287.29 2457.35,1282.27 2464.62,1283.89 2463.70,1284.98"/>
    <poly id="134001427" type="landuse" color="194,194,130" fill="1" layer="-3.00" shape="560.53,710.30 595.39,710.27 641.35,709.39 643.98,701.16 645.62,693.30 636.76,692.22 611.76,689.16 588.09,686.27 573.90,684.54 569.52,684.00 565.56,687.20 564.32,692.99 562.91,699.63 560.53,710.30"/>
    <poly id="136999453" type="landuse" color="194,194,130" fill="1" layer="-3.00" shape="1785.42,2022.40 1787.12,2021.40 1788.87,2019.87 1789.96,2018.53 1791.18,2016.29 1791.75,2014.60 1792.09,2012.18 1792.04,2010.54 1791.51,2008.07 1790.76,2006.29 1789.58,2004.45 1788.05,2002.83 1786.69,2001.80 1784.62,2000.73 1782.78,2000.17 1780.71,1999.89 1778.72,1999.98 1776.77,2000.39 1774.66,2001.25 1772.22,2002.68 1770.26,2004.16 1768.51,2005.94 1767.25,2007.62 1765.85,2011.26 1765.57,2013.13 1765.62,2014.87 1766.08,2017.03 1766.63,2018.40 1767.80,2020.26 1768.85,2021.42 1770.21,2022.51 1772.00,2023.48 1773.97,2024.05 1777.62,2024.32 1780.57,2024.00 1783.51,2023.14 1785.42,2022.40"/>
    <poly id="137692728" type="building" color="255,230,230" fill="1" layer="-1.00" shape="862.44,1798.89 859.75,1791.85 853.43,1775.34 859.43,1772.79 867.51,1769.34 871.13,1777.79 877.57,1793.02 862.44,1798.89"/>
    <poly id="137884625" type="amenity" color="237,199,199" fill="1" layer="-1.00" shape="361.28,2243.11 360.86,2243.21 359.80,2243.52 359.77,2243.62 360.82,2243.79 360.61,2244.92 359.52,2244.77 358.80,2246.20 359.46,2247.19 358.53,2247.77 357.93,2246.92 356.28,2247.42 356.24,2248.65 355.17,2248.62 355.30,2247.30 354.02,2246.46 353.03,2247.27 352.39,2246.49 353.14,2245.78 352.10,2246.04 351.69,2244.78 347.23,2246.11 347.47,2247.07 346.41,2247.40 346.11,2246.42 342.08,2247.55 342.37,2248.67 341.25,2249.00 340.93,2247.91 336.96,2249.08 337.30,2250.20 336.16,2250.53 335.80,2249.42 333.63,2250.03 333.89,2250.73 332.85,2251.03 332.59,2250.25 332.08,2250.38 331.91,2249.76 332.47,2249.53 331.59,2246.67 331.00,2246.84 330.74,2246.01 331.30,2245.80 329.32,2239.27 328.71,2239.42 328.47,2238.61 329.02,2238.41 328.09,2235.32 327.48,2235.49 327.33,2234.97 327.88,2234.86 327.63,2233.98 328.58,2233.66 328.83,2234.36 331.00,2233.70 330.85,2232.98 331.85,2232.66 332.12,2233.37 336.12,2232.17 335.92,2231.45 336.97,2231.11 337.21,2231.84 341.17,2230.68 340.96,2229.89 342.02,2229.56 342.29,2230.35 346.69,2229.00 346.37,2227.73 347.27,2227.47 347.26,2227.30 346.21,2226.97 346.47,2225.85 347.55,2226.20 348.19,2224.79 347.45,2223.80 348.25,2223.23 348.93,2224.06 350.65,2223.59 350.74,2222.35 351.77,2222.45 351.69,2223.63 352.99,2224.29 353.77,2223.44 354.68,2224.27 353.90,2225.21 355.11,2224.81 355.49,2226.05 358.34,2225.25 358.27,2225.10 359.73,2224.67 359.86,2223.69 360.97,2223.84 360.92,2224.63 362.13,2225.25 362.03,2225.45 365.93,2227.61 366.70,2226.97 367.44,2227.79 366.83,2228.46 368.46,2233.83 369.47,2234.08 369.29,2235.17 368.23,2234.94 367.52,2236.11 364.75,2240.73 364.92,2241.40 363.81,2242.09 363.30,2241.25 361.28,2243.11"/>
    <poly id="137884625#1" type="building" color="255,230,230" fill="1" layer="-1.00" shape="361.28,2243.11 360.86,2243.21 359.80,2243.52 359.77,2243.62 360.82,2243.79 360.61,2244.92 359.52,2244.77 358.80,2246.20 359.46,2247.19 358.53,2247.77 357.93,2246.92 356.28,2247.42 356.24,2248.65 355.17,2248.62 355.30,2247.30 354.02,2246.46 353.03,2247.27 352.39,2246.49 353.14,2245.78 352.10,2246.04 351.69,2244.78 347.23,2246.11 347.47,2247.07 346.41,2247.40 346.11,2246.42 342.08,2247.55 342.37,2248.67 341.25,2249.00 340.93,2247.91 336.96,2249.08 337.30,2250.20 336.16,2250.53 335.80,2249.42 333.63,2250.03 333.89,2250.73 332.85,2251.03 332.59,2250.25 332.08,2250.38 331.91,2249.76 332.47,2249.53 331.59,2246.67 331.00,2246.84 330.74,2246.01 331.30,2245.80 329.32,2239.27 328.71,2239.42 328.47,2238.61 329.02,2238.41 328.09,2235.32 327.48,2235.49 327.33,2234.97 327.88,2234.86 327.63,2233.98 328.58,2233.66 328.83,2234.36 331.00,2233.70 330.85,2232.98 331.85,2232.66 332.12,2233.37 336.12,2232.17 335.92,2231.45 336.97,2231.11 337.21,2231.84 341.17,2230.68 340.96,2229.89 342.02,2229.56 342.29,2230.35 346.69,2229.00 346.37,2227.73 347.27,2227.47 347.26,2227.30 346.21,2226.97 346.47,2225.85 347.55,2226.20 348.19,2224.79 347.45,2223.80 348.25,2223.23 348.93,2224.06 350.65,2223.59 350.74,2222.35 351.77,2222.45 351.69,2223.63 352.99,2224.29 353.77,2223.44 354.68,2224.27 353.90,2225.21 355.11,2224.81 355.49,2226.05 358.34,2225.25 358.27,2225.10 359.73,2224.67 359.86,2223.69 360.97,2223.84 360.92,2224.63 362.13,2225.25 362.03,2225.45 365.93,2227.61 366.70,2226.97 367.44,2227.79 366.83,2228.46 368.46,2233.83 369.47,2234.08 369.29,2235.17 368.23,2234.94 367.52,2236.11 364.75,2240.73 364.92,2241.40 363.81,2242.09 363.30,2241.25 361.28,2243.11"/>
    <poly id="13792999" type="water" color="181,209,209" fill="1" layer="-4.00" shape="378.43,913.27 368.92,924.35 361.71,936.12 358.85,942.17 356.97,948.25 355.79,954.25 355.48,960.30 356.34,971.01 359.52,979.41 364.95,987.49 371.05,993.16 381.12,998.11 391.33,1000.31 405.45,999.40 416.61,995.38 427.12,987.24 432.93,979.39 438.99,969.33 447.64,946.69 454.06,923.40 458.08,900.47 461.97,874.49 465.59,845.09 467.57,813.19 464.56,812.82 459.28,826.79 454.84,836.53 449.72,845.35 438.86,857.69 413.22,883.11 402.67,893.32 390.97,902.45 378.43,913.27"/>
    <poly id="138507062" type="building" color="255,230,230" fill="1" layer="-1.00" shape="849.67,2631.28 861.71,2658.46 867.27,2655.80 870.93,2663.98 876.91,2661.18 857.76,2619.54 851.88,2622.73 854.49,2628.40 849.67,2631.28"/>
    <poly id="141240918" type="amenity" color="237,199,199" fill="1" layer="-1.00" shape="2722.88,3017.91 2732.17,3026.18 2733.91,3024.23 2745.82,3010.84 2759.91,2995.00 2760.56,2994.26 2751.27,2986.00 2722.88,3017.91"/>
    <poly id="141240918#1" type="building" color="255,230,230" fill="1" layer="-1.00" shape="2722.88,3017.91 2732.17,3026.18 2733.91,3024.23 2745.82,3010.84 2759.91,2995.00 2760.56,2994.26 2751.27,2986.00 2722.88,3017.91"/>
    <poly id="141240925" type="building" color="255,230,230" fill="0" layer="-1.00" shape="2765.71,3000.39 2759.91,2995.00"/>