<?xml version="1.0" encoding="UTF-8"?>

<!-- generated on Wed Jul 30 21:35:20 2014 by SUMO duarouter Version 0.17.1
<?xml version="1.0" encoding="UTF-8"?>

<configuration xmlns:xsi="http://www.w3.org/2001/XMLSchema-instance" xsi:noNamespaceSchemaLocation="http://sumo.sf.net/xsd/duarouterConfiguration.xsd">

    <input>
        <net-file value="/home/pierpaolo/Scrivania/scriptMirco/scriptMirco/facilitatore/v0.4/v0.4/net/Parigi3/Parigi3.net.xml"/>
        <trip-files value="/home/pierpaolo/Scrivania/scriptMirco/scriptMirco/facilitatore/v0.4/v0.4/rou/Parigi3/Parigi3.trips.xml"/>
    </input>

    <output>
        <output-file value="/home/pierpaolo/Scrivania/scriptMirco/scriptMirco/facilitatore/v0.4/v0.4/rou/Parigi3/Parigi3.rou.xml"/>
    </output>

    <processing>
        <ignore-errors value="true"/>
    </processing>

    <time>
        <begin value="0.0"/>
        <end value="1000.0"/>
    </time>

</configuration>
-->

<routes xmlns:xsi="http://www.w3.org/2001/XMLSchema-instance" xsi:noNamespaceSchemaLocation="http://sumo.sf.net/xsd/routes_file.xsd">
    <vehicle id="0" depart="0.00">
        <route edges="-25485120#1 -25485120#0 4018057#0 4018060#0 4018060#1 56671843#2 25485120#0 25485120#1 25485120#2 25485120#3"/>
    </vehicle>
    <vehicle id="1" depart="0.50">
        <route edges="41486595#2 41486595#3 41486595#4 41486595#5 41486595#6 41486595#7 41486595#8 41486595#9 41486595#10 41486595#11 41486595#12 23245264#0 23245264#1 16360356#0 16360356#1 16360356#2 16360395#1 16360395#2 -41486595#3 -41486595#2 -41486595#1 -172841426#11 -172841426#9 -172841426#8 -172841426#7 -172841426#6 -172841426#5 -172841426#3 -172841426#2 -172841426#1 -172841426#0 172841427#0 172841427#1 172841427#2 35980522#6 35980522#7 3630515 43904125#0 43904125#1 43904125#3 43904125#4 43904125#5 43904125#6 43904125#7 43904125#8 25485120#0 25485120#1 25485120#2 25485120#3 79946380 85735959 25470077#0 25470077#1 25470077#2 25470077#3 25470077#4 4039149#0 4039149#1 4039111 142417902#0 142417902#1 -229233926"/>
    </vehicle>
    <vehicle id="3" depart="1.50">
        <route edges="161126206 253882163#0 253882163#2 253882163#3 172857781 83120624#3 294799032#0 294799032#1 32529402 4039387#0 4039387#1 4081744 172858059"/>
    </vehicle>
    <vehicle id="4" depart="2.00">
        <route edges="187795946#2 5209967#3 5209967#4 5209967#5 35099250#9 35099250#10 35099250#11 5209911#0 5209911#1 5209911#2 5209911#3 5209911#3-AddedOffRampEdge 5209911#4 5209911#5 -56640608#5 -56640608#4 11288541#0 11288541#2 11288541#3 171902967 6063162#1 6063162#2 6063162#3 85068501#0 85068501#1 85068501#2 39363581 32529500 -172635657#1 -172635657#0 6063198#1 6063198#2 6063198#3 11288459 165818767#0 165818767#1 22937936#1 22934762#0 22934762#1 -84193219 -23952082#3 -23952082#2 -23952082#1 -23952082#0 -183690086 -183689675 30919055 172813509#0 172813509#1"/>
    </vehicle>
    <vehicle id="5" depart="2.50">
        <route edges="4039598#2 4039243#0 4039243#1 -23411280 21346517#3 21346517#4 21346517#5 21346422 3630700 83873534#0 83873534#1 83873534#2 56064694#0 56064694#1 56064694#2 56064694#4 56064694#5 56064694#6 56064694#7 56064694#9 56064694#10 24675777#0 24675777#2 24675777#2-AddedOffRampEdge 24675777#3 24675777#4 197464535#0 197464535#1 37017809 35980522#7 35980522#8 35980522#9 35980522#0 35980522#1 35980522#3 35980522#4 31828464#0 31828464#1 31828464#2 -24664080#10 -24664080#9 -24664080#8 -24664080#7 -24664080#6 -24664080#5 -24664080#4 -24664080#3 -24664080#2 -24664080#1 13455951#0 13455951#1 13455951#3 13455951#4 13455951#5 13455951#6 13455951#7 13455951#8 13455951#9 13455951#10 13455951#11 13455951#12 13455951#13 13455951#14 13455951#15 251072918#0"/>
    </vehicle>
    <vehicle id="6" depart="3.00">
        <route edges="197464171 4018280 4018271#0 4018271#1 56066068 273240591#1 41361996#0 41361996#1 3599341#0 3599341#1 3599341#2 3599341#3 3599341#4 3599341#5 23397729#0 23397729#1 180826340#0 180826340#1 180826340#2"/>
    </vehicle>
    <vehicle id="7" depart="3.50">
        <route edges="-44801520 -22884685#0 22937733#1 56064694#7 56064694#9 56064694#10 24675777#0 24675777#2 24675777#2-AddedOffRampEdge 24675777#3 24675777#4 197464535#0 197464535#1 37017809 35980522#7 35980522#8 35980522#9 35980522#0 35980522#1 35980522#3 61509953 172841426#0 172841426#1 172841426#2 172841426#3 172841426#5 172841426#6 172841426#7 172841426#8 172841426#9 172841426#11 41486595#1 41486595#2 41486595#3 41486595#4 41486595#5 41486595#6 41486595#7 41486595#8 41486595#9 41486595#10 41486595#11 41486595#12 41486595#13 41486595#14 57936272#0 57936272#1 57936272#2 57936272#3 57936272#3-AddedOffRampEdge 57936272#4 57936272#5 57936272#6 57936272#7"/>
    </vehicle>
    <vehicle id="8" depart="4.00">
        <route edges="5219255#0 5219255#1 172636187#0 172636187#1 192218513 28841274#0 28841274#1 6063198#3 6063198#4 6063198#5 11288141#0 11288141#1 11288141#2 11288141#3 85735933#0 85735933#1 -85735937#3 -85735937#1 -85735937#0 4039844#0 4039844#1 4039844#2 4039844#2-AddedOffRampEdge 4039844#3 4039844#4 4039844#5 4039844#6 35980522#3 35980522#4 31828464#0 31828464#1 31828464#2 35980519#0 35980519#1 35980519#2 35980519#3 35980519#4 35980519#5 35980519#6 35980519#7 35980519#8 35980519#9 35980519#10 24675767#0 24675767#1 154070462#0"/>
    </vehicle>
    <vehicle id="9" depart="4.50">
        <route edges="-4039598#0 56064694#0 56064694#1 56064694#2 56064694#4 56064694#5 56064694#6 56064694#7 56064694#9 56064694#10 24675777#0 24675777#2 24675777#2-AddedOffRampEdge 24675777#3 24675777#4 197464535#0 197464535#1 37017809 35980522#7 35980522#8 35980522#9 35980522#0 35980522#1 35980522#3 61509953 172841426#0 172841426#1 172841426#2 172841426#3 172841426#5 172841426#6 172841426#7 172841426#8 172841426#9 172841426#11 41486595#1 41486595#2 41486595#3 41486595#4 41486595#5 41486595#6 41486595#7 41486595#8 41486595#9 41486595#10 41486595#11 41486595#12 41486595#13 41486595#14 24514410#0 24514410#1 24514410#2 24514410#3 24514410#4 23782694#2 23782694#3 23782694#4 23782692"/>
    </vehicle>
    <vehicle id="10" depart="5.00">
        <route edges="4217186#1 4217186#2 4217186#3 4217184#0 4217184#1 85068503#0 85068503#1 85068503#2 237932365 237932370#2 -25485138 -53799097#8 -53799097#7 -53799097#6 -53799097#5 -53799097#4 -53799097#3 -53799097#2 -53799097#1 -53799097#0 -2570 35980522#9 35980522#0 35980522#1 35980522#3 35980522#4 31828464#0 31828464#1 31828464#2 35980519#0 35980519#1 35980519#2 35980519#3 35980519#4 35980519#5 35980519#6 35980519#7 35980519#8 35980519#9 35980519#10 4039920#0 4039920#1 4039920#2 4039920#4 4039510#0 4039510#1 4039510#3"/>
    </vehicle>
    <vehicle id="11" depart="5.50">
        <route edges="-237932372#1 -237932372#0 237932370#2 -25485138 -53799097#8 -53799097#7 -53799097#6 -53799097#5 -53799097#4 -53799097#3 -53799097#2 -53799097#1 -53799097#0 -2570 35980522#9 35980522#0 35980522#1 35980522#3 35980522#4 31828464#0 31828464#1 31828464#2 -24664080#10 -24664080#9 -24664080#8 -24664080#7 -24664080#6 -24664080#5 -24664080#4 -24664080#3 -24664080#2 -24664080#1 84416296#0 84416296#1 84416296#2 166755011#0 166755011#1 209282568#0 209282568#1 209282568#2 209282568#3 209282568#4 56760466#0 56760466#1 1881556#0 1881556#1 1881556#2 1881556#3 1881556#4 1881556#5 1881556#6 23951283#0 23951283#1 23951283#2 58073040#0"/>
    </vehicle>
    <vehicle id="12" depart="6.00">
        <route edges="-22884685#0 22937733#1 56064694#7 56064694#9 56064694#10 4040082 4039920#0 4039920#1 4039920#2 4039920#4 4039609 123461254#0 123461254#1 123461254#2 -59431665 -3630659#1 -3630659#0 -166755012#4 -166755012#3 -166755012#2 -166755012#0 1881556#0 1881556#1 1881556#2 1881556#3 1881556#4 1881556#5 1881556#6 23951283#0 23951283#1 23951283#2 58073040#0 58073040#1 56066066#0 56066066#1 4018272 123461250#1 239629032 -96828513 -4018270#1 -4018270#0 4018310#0 4018310#1 183538155#1"/>
    </vehicle>
    <vehicle id="13" depart="6.50">
        <route edges="29021872 29021857 29021802 21346517#4 21346517#5 21346422 3630700 83873534#0 83873534#1 83873534#2 56064694#0 56064694#1 56064694#2 56064694#4 56064694#5 56064694#6 56064694#7 56064694#9 56064694#10 24675777#0 24675777#2 24675777#2-AddedOffRampEdge 24675777#3 24675777#4 197464535#0 197464535#1 37017809 35980522#7 35980522#8 35980522#9 4039862 53749410 -4039730 4081723#0 4081723#1 4081723#3 4081723#4 4081723#5 4081723#6 85735937#0 85735937#1 85735937#3 -85735933#1 -85735933#0 -11288141#3 -11288141#2"/>
    </vehicle>
    <vehicle id="14" depart="7.00">
        <route edges="83873534#1 83873534#2 56064694#0 56064694#1 56064694#2 56064694#4 56064694#5 56064694#6 56064694#7 56064694#9 56064694#10 24675777#0 24675777#2 24675777#2-AddedOffRampEdge 24675777#3 24675777#4 197464535#0 197464535#1 37017809 35980522#7 35980522#8 35980522#9 4039862 53749410 -4039730 4081723#0 4081723#1 4081723#3 4081723#4 4081723#5 4081723#6 85735937#0 85735937#1 85735937#3 -85735933#1 -85735933#0 56138076#4 56138076#6 56138076#7 56138076#8 23952334#0 23952334#1 56123402 39363574#0 39363574#1 39363574#2 -23202911#0"/>
    </vehicle>
    <vehicle id="15" depart="7.50">
        <route edges="3630644#1 3630644#2 -24664080#4 -24664080#3 -24664080#2 4081626 172841426#6 172841426#7 172841426#8 172841426#9 172841426#11 41486595#1 41486595#2 41486595#3 41486595#4 41486595#5 41486595#6 41486595#7 41486595#8 41486595#9 41486595#10 41486595#11 41486595#12 41486595#13 41486595#14"/>
    </vehicle>
    <vehicle id="16" depart="8.00">
        <route edges="10588190 -85735937#1 -85735937#0 4039844#0 4039844#1 4039844#2 4039844#2-AddedOffRampEdge 4039844#3 4039844#4 4039844#5 4039844#6 35980522#3 35980522#4 31828464#0 31828464#1 31828464#2 35980519#0 35980519#1 35980519#2 35980519#3 35980519#4 35980519#5 35980519#6 35980519#7 35980519#8 35980519#9"/>
    </vehicle>
    <vehicle id="17" depart="8.50">
        <route edges="35098117#1 83120629 35099250#0 35099250#1 35099250#2 35099250#3 35099250#4 35099250#5 35099250#6 98929544#0 98929544#1 98929585 -35099250#7 -35099250#6 -35099250#5 -35099250#4 -35099250#3 -35099250#2 -35099250#1 -35099250#0 4081763 35099251#0 35099251#1 -4039230#1 -4039230#0 -53799097#8 -53799097#7 -53799097#6 -53799097#5 -53799097#4 -53799097#3 -53799097#2 -53799097#1 -53799097#0 -2570 35980522#9 35980522#0 35980522#1 35980522#3 61509953 172841426#0 172841426#1 172841426#2 172841426#3 172841426#5 172841426#6 172841426#7 172841426#8 172841426#9 172841426#11 41486595#1 41486595#2 41486595#3 41486595#4 41486595#5 41486595#6 41486595#7 41486595#8 41486595#9 41486595#10 41486595#11 41486595#12 41486595#13 41486595#14 16289749#1 84193204 223991877"/>
    </vehicle>
    <vehicle id="18" depart="9.00">
        <route edges="56138076#3 85735933#0 85735933#1 -85735937#3 -85735937#1 -85735937#0 4039844#0 4039844#1 4039844#2 4039844#2-AddedOffRampEdge 4039844#3 4039844#4 4039844#5 4039844#6 35980522#3 35980522#4 31828464#0 31828464#1 172841427#1 172841427#2 35980522#6 35980522#7 35980522#8 2570 53799097#0 53799097#1 53799097#2 53799097#3 53799097#4 53799097#5 53799097#6 53799097#7 53799097#8 35098117#0 35098117#1 83120629 35099250#0 35099250#1 35099250#2 35099250#3 35099250#4 35099250#5 35099250#6 35099250#7 35099250#8 35099250#9 35099250#10"/>
    </vehicle>
    <vehicle id="19" depart="9.50">
        <route edges="56064694#7 56064694#9 56064694#10 24675777#0 24675777#2 24675777#2-AddedOffRampEdge 24675777#3 24675777#4 197464535#0 197464535#1 37017809 35980522#7 35980522#8 35980522#9 35980522#0 35980522#1 35980522#3 61509953 172841426#0 172841426#1 172841426#2 172841426#3 172841426#5 172841426#6 172841426#7 172841426#8 172841426#9 172841426#11 16360640#0 16360640#1 172841433"/>
    </vehicle>
    <vehicle id="20" depart="10.00">
        <route edges="4217063#1 4217063#2 4217063#3 37106047#9 37106047#10-AddedOnRampEdge 37106047#10 37106047#11 5209911#0 5209911#1 5209911#2 5209911#3 5209911#3-AddedOffRampEdge 5209911#4 5209911#5 -56640608#5 -56640608#4 11288541#0 11288541#2 11288541#3 171902967 6063162#1 6063162#2 6063162#3 85068501#0 85068501#1"/>
    </vehicle>
    <vehicle id="21" depart="10.50">
        <route edges="37106047#6 37106047#7 37106047#8 37106047#9 37106047#10-AddedOnRampEdge 37106047#10 37106047#11 -35099250#11 -35099250#10 -35099250#9 -35099250#8 -35099250#7 -35099250#6 -35099250#5 -35099250#4 -35099250#3 -35099250#2 -35099250#1 -35099250#0 4081763 35099251#0 35099251#1 83120624#0"/>
    </vehicle>
    <vehicle id="22" depart="11.00">
        <route edges="195204175#3 41361998#0 41361998#1 41361998#2 41361998#4 41361998#5 41361998#6 41361998#7 41361998#8 41361998#9 41361998#10 41361998#11 56760466#0 56760466#1 166755012#0 166755012#2 166755012#3 166755012#4 3630659#0 3630659#1 59431665 4039845#0 4039845#1 4039845#2 4039466"/>
    </vehicle>
    <vehicle id="23" depart="11.50">
        <route edges="-56066065 -96828513 4018296#0 4018296#2 239629032 56066065 273240591#0 273240591#1 41361996#0 41361996#1 3599341#0 3599341#1 3599341#2 3599341#3 3599341#4 3599341#5 3599341#6 3599341#7 3599341#8 3599341#9 3599341#10 3599341#11 3599341#12 3599341#13 3599341#14 24664080#1 24664080#2 24664080#3 24664080#4 24664080#5 24664080#6 24664080#7 24664080#8 24664080#9 24664080#10 35980519#0 35980519#1 4018414 166755014#0"/>
    </vehicle>
    <vehicle id="24" depart="12.00">
        <route edges="25485120#2 25485120#3 79946380 85735959 25470077#0 4039390#0 -41469916#0 -79946380 -25485120#3 -25485120#2 -25485120#1 -25485120#0 -43904125#8 -43904125#7 -43904125#6 -43904125#5 -43904125#4 4018052#0 4018052#1 4018052#2 4018056#0 4018054#0 4018054#1 4018054#2 35980519#10 4039920#0 4039920#1 4039920#2 4039920#4 4039609 123461254#0 123461254#1 123461254#2 -59431665 -3630659#1 -3630659#0 -166755012#4 -166755012#3 -166755012#2 -166755012#0 1881556#0 1881556#1 1881556#2 1881556#3 1881556#4 1881556#5 1881556#6 23951283#0 23951283#1 23951283#2 58073040#0 58073040#1 56066066#0 56066066#1 4018272 123461250#1 239629032 -96828513 -4018270#1 16394113 24692802#1-AddedOnRampEdge 24692802#1 24692802#1-AddedOffRampEdge 30174232 30174231 30839612"/>
    </vehicle>
    <vehicle id="25" depart="12.50">
        <route edges="5103626 23782500#0 23782500#1 294840613 23782498 -5219257#1 -5219257#0 172636187#0 172636187#1 192218513 28841274#0 28841274#1 6063198#3 6063198#4 6063198#5 11288141#0 11288141#1 11288141#2 11288141#3 85735933#0 85735933#1 -85735937#3 -85735937#1 -85735937#0 4039844#0 4039844#1 4039844#2 4039844#2-AddedOffRampEdge 4039844#3 4039844#4 4039844#5 4039844#6 35980522#3 35980522#4 31828464#0 31828464#1 31828464#2 35980519#0 35980519#1 35980519#2 35980519#3 35980519#4 35980519#5 35980519#6 35980519#7 35980519#8 35980519#9 35980519#10 24675767#0 24675767#1 154070462#0"/>
    </vehicle>
    <vehicle id="26" depart="13.00">
        <route edges="4039371#0 4039371#2 4039371#3 4039371#4 4039371#5 4039371#6 4039371#7 171927177#0 171927177#1 171927177#2 171927177#3 171927177#4 171927177#5 171927177#6 171927177#7 171927177#8 53799378 35980522#3 35980522#4 31828464#0 31828464#1 31828464#2 35980519#0 35980519#1 35980519#2 35980519#3 35980519#4 35980519#5 35980519#6 35980519#7 35980519#8 35980519#9 35980519#10 24675767#0 24675767#1 31830181#0 31830181#1 31830181#2 31830181#4 31830181#5 56064693#0 56064693#1 56064693#2 56064693#3 4039825#0 -51681958#1 14154042"/>
    </vehicle>
    <vehicle id="27" depart="13.50">
        <route edges="56671843#1 56671843#2 -43904125#8 -43904125#7 -43904125#6 -43904125#5 -43904125#4 -43904125#3 -43904125#1 -43904125#0 -3630515 35980522#8 35980522#9 4039862 53749410 -4039730 4081723#0 4081723#1 4081723#3 4081723#4 4081723#5 4081723#6 85735937#0 85735937#1 85735937#3 -85735933#1 -85735933#0 56138076#4 56138076#6 56138076#7 56138076#8 23952334#0 23952334#1 172636186 32529500 -11288473#1"/>
    </vehicle>
    <vehicle id="28" depart="14.00">
        <route edges="66320263 -25470077#1 -25470077#0 -85735959 -79946380 -25485120#3 -25485120#2 -25485120#1 -25485120#0 -43904125#8 -43904125#7 -43904125#6 -43904125#5 -43904125#4 4018052#0 4018052#1 4018052#2 4018056#0 4018054#0 4018054#1 4018054#2 35980519#10 24675767#0 24675767#1 31830181#0 31830181#1 31830181#2 31830181#4 31830181#5 56064693#0 56064693#1 56064693#2 56064693#3 -4040097 -21346422 -21346517#5 -21346517#4 -21346517#3 -21346517#2 -21346517#1 -21346517#0 4041065 31830354"/>
    </vehicle>
    <vehicle id="29" depart="14.50">
        <route edges="154059912#0 -24241397 154070462#1 154070462#2 -154059912#1 -154059912#0 4039472 56064694#6 56064694#7 56064694#9 56064694#10 24675777#0 24675777#2 24675777#2-AddedOffRampEdge 24675777#3 24675777#4 197464535#0 197464535#1 37017809 35980522#7 35980522#8 35980522#9 4039862 53749410 -4039730 4081723#0 4081723#1 4081723#3 4081723#4 4081723#5 4081723#6 85735937#0 85735937#1 85735937#3 -85735933#1 -85735933#0 56138076#4 56138076#6 56138076#7 56138076#8 23952334#0 23952334#1 56123402 39363566#4 39363570#0 39363570#1 39363570#2"/>
    </vehicle>
    <vehicle id="30" depart="15.00">
        <route edges="22699203#1 4080703#1 4080703#2 4080703#3 4081711#3 4081711#4 4081711#5 4081711#6 4081711#7 4081711#8 4081711#9 4081711#10 35098117#0 35098117#1 83120629 35099250#0 35099250#1 35099250#2 35099250#3 35099250#4 35099250#5 35099250#6 35099250#7 35099250#8 35099250#9 35099250#10 35099250#11 5209911#0 5209911#1 5209911#2 5209987#1 5209987#2 5209987#3 -5210012#1 5210013#2"/>
    </vehicle>
    <vehicle id="32" depart="16.00">
        <route edges="-4040036 83873534#2 56064694#0 56064694#1 56064694#2 56064694#4 56064694#5 56064694#6 56064694#7 56064694#9 56064694#10 24675777#0 24675777#2 24675777#2-AddedOffRampEdge 24675777#3 24675777#4 197464535#0 197464535#1 37017809 35980522#7 35980522#8 35980522#9 4039862 53749410 85735962#0 85735962#1 85735962#2 85735962#3 85735962#4 85735962#6 32529495 -4039520 6063084#1 6063084#3"/>
    </vehicle>
    <vehicle id="33" depart="16.50">
        <route edges="-23075596 30919058 169830962 84193216#0 84193216#1 172813508#1 172813508#2 183690086 23952082#0 23952082#1 23952082#2 23952082#3 84193219 84193225#0 84193225#1 84193225#2 84193225#3 84193225#4 84193225#5 84193225#6 84193225#7 84193225#8 84193225#9 6063347#0 6063347#1 44004724#0 44004724#1 44004724#1-AddedOffRampEdge 44004724#2 192218513 28841274#0 28841274#1 6063198#3 6063198#4 6063198#5 11288141#0 11288141#1 11288141#2 11288141#3 85735933#0 85735933#1 -85735937#3 -85735937#1 -85735937#0 4039844#0 4039844#1 4039844#2 4039844#2-AddedOffRampEdge 4039844#3 4039844#4 4039844#5 4039844#6 35980522#3 35980522#4 31828464#0 31828464#1 172841427#1 172841427#2 35980522#6 35980522#7 3630515 43904125#0 43904125#1 43904125#3 43904125#4 43904125#5 43904125#6 43904125#7 43904125#8 4080699#0"/>
    </vehicle>
    <vehicle id="34" depart="17.00">
        <route edges="-43025074#0 5209967#5 35099250#9 35099250#10 35099250#11 5209911#0 5209911#1 5209911#2 5209911#3 5209911#3-AddedOffRampEdge 5209911#4 5209911#5 -56640608#5 -56640608#4 11288541#0 11288541#2 11288541#3 171902967 6063162#1 6063162#2 6063162#3 85068501#0 85068501#1 85068501#2 -56123402 -23952334#1 -23952334#0 -56138076#8 -56138076#7 -56138076#6 -56138076#4 11288240#0 11288240#1 11288240#2 11288145#6 11288145#0 11288145#1 11288265#0 11288278#0 -172635649 -172635647#0 -11288163#0"/>
    </vehicle>
    <vehicle id="35" depart="17.50">
        <route edges="23951813#4 23951813#5 -23951813#3 -23951813#2 -23951813#1 -23951813#0 84193217#0 84193217#1 84193217#2 -223991880 -84193204 -16289749#1 -41486595#14 -41486595#13 -41486595#12 -41486595#11 -41486595#10 -41486595#9 -41486595#8 -41486595#7 -41486595#6 -41486595#5 -41486595#4 -41486595#3 -41486595#2 -41486595#1 -172841426#11 -172841426#9 -172841426#8 -172841426#7 -172841426#6 -172841426#5 -172841426#3 -172841426#2 -172841426#1 -172841426#0 172841427#0 31828464#2 35980519#0 35980519#1 35980519#2 35980519#3 35980519#4 35980519#5 35980519#6 35980519#7 35980519#8 35980519#9"/>
    </vehicle>
    <vehicle id="37" depart="18.50">
        <route edges="-4040084 33771824#2 3630969#1 4040035#0 4040035#1 4040035#2 163694217#0 163694217#1 -3599326 3630659#0 3630659#1 59431665 4039845#0 4039845#1 4039845#2 4039466 -4039920#4 -4039920#2 -4039920#1 -4039920#0 -4040082 24675777#0 24675777#2 24675777#2-AddedOffRampEdge 24675777#3 24675777#4 197464535#0 197464535#1 37017809 35980522#7 35980522#8 2570 53799097#0 53799097#1 53799097#2 53799097#3 53799097#4 53799097#5 53799097#6 53799097#7 53799097#8 25485138 237932369#0 237932367#1 -85068503#2 -85068503#1 -85068503#0 -85068499 -24846461#2 -24846461#1 -68907088#2 -68907088#1 -68907088#0 37106047#5 37106047#6 37106047#7 37106047#8 37106047#9 37106047#10-AddedOnRampEdge"/>
    </vehicle>
    <vehicle id="38" depart="19.00">
        <route edges="-4039706#1 -154059915 31830181#2 -4039616 56064694#4 56064694#5 56064694#6 56064694#7 56064694#9 56064694#10 24675777#0 24675777#2 24675777#2-AddedOffRampEdge 24675777#3 24675777#4 -197464174 -4018414 3630640#0 3630640#1 3630640#3 23397455#0 23397455#1 23397489#0"/>
    </vehicle>
    <vehicle id="40" depart="20.00">
        <route edges="-39363570#0 39363569#0 39363569#1 -56123402 -23952334#1 -23952334#0 -56138076#8 -56138076#7 -56138076#6 -56138076#4 -56138076#3 -56138076#2 -56138076#1 -56138076#0 -157910468 3599327#0 3599327#1 84416296#0 84416296#1 84416296#2 166755011#0 166755011#1 -154802893#4 -154802893#3 -154802893#1 -154802893#0 23416460 1881555#2 -23416436#0"/>
    </vehicle>
    <vehicle id="41" depart="20.50">
        <route edges="-24664080#1 84416296#0 84416296#1 84416296#2 166755011#0 166755011#1 209282568#0 209282568#1 209282568#2 209282568#3 209282568#4 56760466#0 56760466#1 166755012#0 166755012#2 166755012#3 166755012#4 3630659#0 3630659#1 59431665 4039845#0 4039845#1 4039845#2 4039466 -4039920#4 -4039920#2 -4039920#1 -4039920#0 24675767#0 24675767#1 31830181#0 31830181#1 31830181#2 31830181#4 31830181#5 56064693#0 -27585929#2 -27585929#1 -27585929#0 -4039608#3 -4039608#2 -4039608#1"/>
    </vehicle>
    <vehicle id="42" depart="21.00">
        <route edges="16290800#0 16290800#1 16290800#2 58507532#2 58507532#3 4039371#0 4039371#2 4039371#3 4039371#4 4039371#5 4039520 -171930669#1 -171930669#0 32529472 4039387#0 4039387#1 4039387#2 85320924 4217124#0 4217124#1 4217124#2 72224010"/>
    </vehicle>
    <vehicle id="43" depart="21.50">
        <route edges="172635656 -107710257#0 107710243#0 107710243#1 -56138076#7 -56138076#6 -56138076#4 85735933#0 85735933#1 -85735937#3 -85735937#1 -85735937#0 4039844#0 4039844#1 4039844#2 4039844#2-AddedOffRampEdge 4039844#3 4039844#4 4039844#5 4039844#6 35980522#3 35980522#4 31828464#0 31828464#1 172841427#1 172841427#2 35980522#6 35980522#7 3630515 43904125#0 43904125#1 43904125#3 43904125#4 43904125#5 43904125#6 43904125#7 43904125#8 25485120#0 25485120#1 25485120#2 25485120#3 79946380 85735959 25470077#0 25470077#1 25470077#2 25470077#3 25470077#4 4039149#0 4039149#1 4039111 205227733 229233926 -142417902#1 -142417902#0"/>
    </vehicle>
    <vehicle id="44" depart="22.00">
        <route edges="56064694#9 56064694#10 24675777#0 4018055#2 4018056#2 4018056#3 23017514 43904125#6 43904125#7 4080693#0 4080684#0 4080684#1 4080685#0"/>
    </vehicle>
    <vehicle id="45" depart="22.50">
        <route edges="56064694#9 56064694#10 4040082 4039920#0 4039920#1 4039920#2 4039920#4 4039609 123461254#0 123461254#1 123461254#2 -59431665 -3630659#1 -3630659#0 -166755012#4 -166755012#3 23951224"/>
    </vehicle>
    <vehicle id="46" depart="23.00">
        <route edges="184347934 30838755 30174230 30174229#0 30174229#0-AddedOffRampEdge 16394059 4018270#0 4018270#1 96828513 56066065 273240591#0 273240591#1 41361996#0 41361996#1 41361998#0 41361998#1 41361998#2 41361998#4 41361998#5 41361998#6 41361998#7 41361998#8 41361998#9 41361998#10 41361998#11 56760466#0 56760466#1 166755012#0 166755012#2 166755012#3 166755012#4 3630659#0 3630659#1 59431665 4039845#0 4039845#1 4039845#2 4039466 -4039920#4 -4039920#2 -4039920#1 -4039920#0 24675767#0 24675767#1 31830181#0 31830181#1 31830181#2 31830181#4 31830181#5 56064693#0 56064693#1 56064693#2 56064693#3 -4040097 -21346422 -21346517#5 -21346517#4 -21346517#3 -21346517#2 -21346517#1 -21346517#0"/>
    </vehicle>
    <vehicle id="47" depart="23.50">
        <route edges="159555840 -39363570#0 39363569#0 39363569#1 -56123402 -23952334#1 -23952334#0 -56138076#8 -56138076#7 -56138076#6 -56138076#4 85735933#0 85735933#1 -85735937#3 -85735937#1 -85735937#0 4039844#0 4039844#1 4039844#2 4039844#2-AddedOffRampEdge 4039844#3 4039844#4 4039844#5 4039844#6 35980522#3 35980522#4 31828464#0 31828464#1 31828464#2 35980519#0 35980519#1 35980519#2 35980519#3 35980519#4 35980519#5 35980519#6 35980519#7 35980519#8 35980519#9 35980519#10 24675767#0 24675767#1 31830181#0 31830181#1 31830181#2 31830181#4 31830181#5 56064693#0 56064693#1 56064693#2 56064693#3 -4040097 -21346422 -21346517#5 -21346517#4 -21346517#3 -21346517#2 -21346517#1 -21346517#0 -4039817#1 -4039817#0 4039817#0 4039817#1 21346517#0 21346517#1 21346517#2"/>
    </vehicle>
    <vehicle id="48" depart="24.00">
        <route edges="25470077#5-AddedOffRampEdge -25470077#5 -25470077#4 -25470077#3 -25470077#2 -25470077#1 -25470077#0 -85735959 -79946380 -25485120#3 -25485120#2 -25485120#1 -25485120#0 -43904125#8 -43904125#7 -43904125#6 -43904125#5 -43904125#4 -43904125#3 -43904125#1 -43904125#0 -3630515 35980522#8 35980522#9 4039862 53749410 85735962#0 85735962#1 85735962#2 85735962#3 85735962#4 85735962#6 32529495 32529494#0 32529494#1 32529494#2 171902967 4039371#0"/>
    </vehicle>
    <vehicle id="49" depart="24.50">
        <route edges="28841274#0 28841274#1 6063198#3 6063198#4 6063198#5 11288141#0 11288141#1 11288141#2 11288141#3 85735933#0 85735933#1 -85735937#3 -85735937#1 -85735937#0 4039844#0 4039844#1 4039844#2 4039844#2-AddedOffRampEdge 4039844#3 4039844#4 4039844#5 4039844#6 35980522#3 35980522#4 31828464#0 31828464#1 172841427#1 172841427#2 35980522#6 35980522#7 3630515 43904125#0 43904125#1 4080683#0 4080683#1 4080683#2 4080683#3 4080684#4 -53799097#4 -53799097#3"/>
    </vehicle>
    <vehicle id="50" depart="25.00">
        <route edges="107710244#0 172635657#1 -11288473#1 -11288473#0 -23952334#0 -56138076#8 -56138076#7 -56138076#6 -56138076#4 85735933#0 85735933#1 -85735937#3 -85735937#1 -85735937#0 4039844#0 4039844#1 4039844#2 4039844#2-AddedOffRampEdge 4039844#3 4039844#4 4039844#5 4039844#6 35980522#3 35980522#4 31828464#0 31828464#1 31828464#2 35980519#0 35980519#1 35980519#2 35980519#3 35980519#4 35980519#5 35980519#6 35980519#7 35980519#8 35980519#9 35980519#10 24675767#0 24675767#1 31830181#0 31830181#1 31830181#2 31830181#4 31830181#5 56064693#0 56064693#1 56064693#2 56064693#3 -4040097 -21346422 -21346517#5 -21346517#4 -21346517#3 -21346517#2 -21346517#1 -21346517#0 4041065 31830354"/>
    </vehicle>
    <vehicle id="51" depart="25.50">
        <route edges="4081711#1 4081711#2 4081711#3 4081711#4 4081711#5 4081711#6 4081711#7 4081711#8 4081711#9 4081711#10 35098117#0 35098117#1 83120629 35099250#0 35099250#1 35099250#2 35099250#3 35099250#4 35099250#5 35099250#6 35099250#7 35099250#8 35099250#9 35099250#10 35099250#11 34856901#0 4217062#0 4217062#1"/>
    </vehicle>
    <vehicle id="52" depart="26.00">
        <route edges="-4039089 -41469916#3 -41469916#2 255119528#1 -25470077#2 -25470077#1 -25470077#0 -85735959 -79946380 -25485120#3 -25485120#2 -25485120#1 -25485120#0 -43904125#8 -43904125#7 -43904125#6 -43904125#5 -43904125#4 -43904125#3 -43904125#1 -43904125#0 -3630515 35980522#8 35980522#9 4039862 53749410 85735962#0 85735962#1 85735962#2 85735962#3 -113963852 16290944#0 16290944#1 16290944#3 16290944#4 16290944#5 16290944#6 16290944#7 34722878#0 34722878#1 34722878#2 34722878#3"/>
    </vehicle>
    <vehicle id="53" depart="26.50">
        <route edges="39363570#0 -159555840 -23163063 6063162#3 85068501#0 23163056 39363579#2 39363579#3 -6063084#5 -6063084#4 -6063084#3 -6063084#1 4039520 -171930669#1 -171930669#0 32529472 -32529402 -294799032#1 -294799032#0 -83120624#3 -83120624#1 -83120624#0 -4039230#1 -4039230#0 25485138 237932369#0 237932372#0 237932372#1 237932372#3 237932372#4 237932372#5 237932372#7 4081764#0 4081764#1 59853653 22946786 85076165#2"/>
    </vehicle>
    <vehicle id="54" depart="27.00">
        <route edges="-43904125#3 -43904125#1 -43904125#0 -3630515 35980522#8 35980522#9 4039862 53749410 -4039730 4081723#0 4081723#1 4081723#3 4081723#4 4081723#5 4081723#6 85735937#0 85735937#1 85735937#3 -85735933#1 -85735933#0 56138076#4 56138076#6 56138076#7 56138076#8 23952334#0 171930668"/>
    </vehicle>
    <vehicle id="55" depart="27.50">
        <route edges="-4080689#0 -53799097#6 -53799097#5 -53799097#4 -53799097#3 -53799097#2 -53799097#1 -53799097#0 -2570 35980522#9 4039862 53749410 -4039730 4081723#0 4081723#1 4081723#3 4081723#4 4081723#5 4081723#6 85735937#0 85735937#1 85735937#3 -85735933#1 -85735933#0 -11288141#3 -11288141#2 -11288141#1 -11288141#0 6063198#6 6063198#7 6063198#0 6063198#1 6063198#2 6063198#3 11288459 165818767#0 165818767#1 22937936#1 22934762#0 22934762#1 -84193219 186227011#0 186227011#1 165814452#0 165814452#1 165814453#0 165814453#1 172852550"/>
    </vehicle>
    <vehicle id="56" depart="28.00">
        <route edges="-23951813#2 -23951813#1 -23951813#0 84193217#0 84193217#1 84193217#2 -223991880 -84193204 -16289749#1 -41486595#14 -41486595#13 -41486595#12 -41486595#11 -41486595#10 -41486595#9 -41486595#8 -41486595#7 -41486595#6 -41486595#5 -41486595#4 -41486595#3 -41486595#2 -41486595#1 -172841426#11 -172841426#9 -172841426#8 -172841426#7 -172841426#6 -172841426#5 -172841426#3 -172841426#2 -172841426#1 -172841426#0 172841427#0 172841427#1 172841427#2 35980522#6 35980522#7 3630515 43904125#0 43904125#1 43904125#3 43904125#4 43904125#5 43904125#6 43904125#7 4080693#0 4080693#1 4080694"/>
    </vehicle>
    <vehicle id="57" depart="28.50">