<?xml version="1.0" encoding="UTF-8"?>

<!-- generated on Wed Jul 30 21:40:17 2014 by SUMO duarouter Version 0.17.1
<?xml version="1.0" encoding="UTF-8"?>

<configuration xmlns:xsi="http://www.w3.org/2001/XMLSchema-instance" xsi:noNamespaceSchemaLocation="http://sumo.sf.net/xsd/duarouterConfiguration.xsd">

    <input>
        <net-file value="/home/pierpaolo/Scrivania/scriptMirco/scriptMirco/facilitatore/v0.4/v0.4/net/Roma4/Roma4.net.xml"/>
        <trip-files value="/home/pierpaolo/Scrivania/scriptMirco/scriptMirco/facilitatore/v0.4/v0.4/rou/Roma4/Roma4.trips.xml"/>
    </input>

    <output>
        <output-file value="/home/pierpaolo/Scrivania/scriptMirco/scriptMirco/facilitatore/v0.4/v0.4/rou/Roma4/Roma4.rou.xml"/>
    </output>

    <processing>
        <ignore-errors value="true"/>
    </processing>

    <time>
        <begin value="0.0"/>
        <end value="1000.0"/>
    </time>

</configuration>
-->

<routes xmlns:xsi="http://www.w3.org/2001/XMLSchema-instance" xsi:noNamespaceSchemaLocation="http://sumo.sf.net/xsd/routes_file.xsd">
    <vehicle id="0" depart="0.00">
        <route edges="22978893#0 22978893#1 25695354#0 25695354#1 25695354#2 27434109#1 27434109#2 27434109#3 106769418#2 106769418#3 106769419 106769417 22886185#0 22886185#1 22886233#0 22886233#1 22886233#2 201496104 95839244 49089532 107256112#0 107256112#1 143571776#0 143571776#1 143571776#2 23894684#0 23894684#1 23894683#0 23894683#1 13279940#1 13279940#2 24876564#0"/>
    </vehicle>
    <vehicle id="1" depart="0.50">
        <route edges="110597334#1 192075623 203984761 4951382 124909763#0 124909763#1 124909763#2 124909763#3 124909763#4 39214753#2 128665339#1 26837446"/>
    </vehicle>
    <vehicle id="2" depart="1.00">
        <route edges="232886170#2 232886170#3 23569044 232886171#0 232886171#1 232886171#2 232886171#3 232886171#4 22885903#1 22885903#2 50601734 189558642 189558677#0 189558676#0 23328208#0 23328208#1 232183095 23328154 189465651#0"/>
    </vehicle>
    <vehicle id="3" depart="1.50">
        <route edges="144962201#0 185586084#1 -185586095 -144962198 -124034719 22978895#0 22978895#1 26665282#0 26665282#1 124034716#0 124034716#1 22978903#3 94110108#1 94110108#2 -124034708"/>
    </vehicle>
    <vehicle id="4" depart="2.00">
        <route edges="23607583#4 26665226#1 26665226#2 26665226#3 35406491#0 35406491#1 29754417 96641134 51081616 52492243#0 52492240#0 52492240#1 93842565 -204388368#2 223267594#2 223267594#3"/>
    </vehicle>
    <vehicle id="5" depart="2.50">
        <route edges="107256106 107256112#0 107256112#1 217704414 143571790#1 52492237#0 124516078#0 124516078#1 24876989#0 24876989#1 22886247 24876987#0 24876987#1 24876987#2 24876987#3 24876987#4 24876987#5 24876987#6 48598973 22886161#0 22886161#1 205709427#0 48598972 205709430 23338773 108570430#0 108570430#1 242345820 242345819 178469119 242345821 178469121 108571049#0 108571049#1 108571049#2 108571049#3 108571049#4 169787522#0 169787522#1 169787522#2 169787522#3 169787522#4 -92403847 24163884 217026776#0 217026776#1 217026776#2 23338547"/>
    </vehicle>
    <vehicle id="6" depart="3.00">
        <route edges="23895836#1 185812466 200858513 200858512 200858510 -200858508 -200858509#1 -24902594#1 143577380#0 143577380#1 124516078#0 124516078#1 24876989#0 24876989#1 22886247 24876987#0 24876987#1 24876987#2 24876987#3 24876987#4 24876987#5 24876987#6 48598973 22886161#0 22886161#1 205709427#0 205709427#1 48599217 22886136 4247947#0 202304085 147125841#0 147125841#1 147125844#0 147125844#1 147125844#2 147125844#3 128672638#0 128672638#1 128672638#2 204007060#0 204007060#1 137470200#0 137470200#1 137470200#2 122185779 292493447#0 292493447#1 23694687#1 181029791 23694690 181029794 215420487 215420488 200248589 140186776 181029793 108565603 290492196 290492199 32454489#0 32454489#1 32454489#2 24492397#0 24492397#1 48520538 287483284 22979118 36779947 215331126#0 215331126#1 36779948#0 36779948#1 10140484#1 147124814#0 147124814#1 125151692 147124637 32504840 22880328#1 22880328#2 123817468#0 24533698#0 24533698#1"/>
    </vehicle>
    <vehicle id="7" depart="3.50">
        <route edges="125987182#0 125987182#1 125987182#2 10640840#1 10640840#3 184686129#2 184686129#3 184686129#4 147125842 147125840 202304086#0 48599205 48599217 22886134 182034212 10640841 10640841-AddedOffRampEdge 121900406 22886185#0 22886185#1 93470432#0 93470432#1 201496101 52492238#0 52492238#1 48646856#0 -25373198#1 -25373198#0 -13280171 284736384 144074557#0 144074557#1 84984959 184553802 24866083 128669223#0 128669223#1 128669223#2 159080853#0 159080853#1 159080850 143577374 221180477#0 284739922 143577383 118575342 26592946#0"/>
    </vehicle>
    <vehicle id="8" depart="4.00">
        <route edges="215801331#0 215801331#1 121548981 22885698#0 201007331 32758333#0 32758333#1 -122109237 232183100 201008858#0 201008858#1 201008858#2 201008858#3 201008856 201008857 23591330#0 23591330#1 23591330#2 23591330#3 23591330#4 23591330#5"/>
    </vehicle>
    <vehicle id="9" depart="4.50">
        <route edges="23571765#1 23571766#1 23571766#2 76843208#3 76843208#4 23560025 153582455#0 153582455#1 153582455#2 153582455#4 153582455#5 153582455#6 153582455#7 153582455#8 122602591 24898069 24900120#1 24900120#2-AddedOnRampEdge 24900120#2 23788574 137470194 112718214 4269924 185812467#0 185812467#2 252131968 252131965 4276749 108327346 185812466 200858513 200858512 200858510 -200858508 27038555 22886246#7 22886246#8 144074553#3 84984937 -200858510 -200858512 24876565#0 24876565#1"/>
    </vehicle>
    <vehicle id="10" depart="5.00">
        <route edges="23607565#1 23607565#2 -25695354#1 -25695354#0 23607558#0 23607558#1 4951069#0 28867436 144962191#2 35408713#1"/>
    </vehicle>
    <vehicle id="11" depart="5.50">
        <route edges="35306129#1 52492248#1 24163223#0 24163223#1 -53799564#1 -53799564#0 -167959412 -167959410#2 -167959410#1 -167959410#0 -169786873#13 -169786873#12 -169786873#11 -169786873#10 -169786873#9 -169786873#8 -169786873#7 -169786873#6 -169786873#5 -169786873#4 -169786873#3 -169786873#2 -169786873#1 -169786873#0 118575336#1 118575339#0 118575339#1 118575339#2 169786869 -184553799 -184553800 -284739924 -28160228#3 -28160228#1 -28160228#0 28160219 23046246#0 23046246#1 23764170 23046285#1 23046285#2 23764151#1 23764151#2 23046199#0 23046199#1 23046199#2 137470203#0 137470203#1 23425744#0 23425744#1 23425744#2 23425744#3 23425744#4 23425744#6 76843208#0 76843208#1 76843208#2 76843208#3 76843208#4 190639864 24164251 24164252 95640017 24450967#3 13280341#0 13280341#1 13280341#2 13280341#3"/>
    </vehicle>
    <vehicle id="12" depart="6.00">
        <route edges="204388368#2 97633574 26665054 52492241#0 52492241#1 93842567 93842562 51081578 201664375 23607569 -124034712#2 26665408 26665398#1 -25695354#3 -25695354#2 -25695354#1 -25695354#0 23607558#0 23607558#1 4951069#0 4951069#2 4951069#3 4951069#4 49305051 122110665#1 128669209 23442373#0 28160774 28160776 24180680#2 137470204#2 137470204#3 190022907 26784714 128665323#0 128665323#1 128665323#2 128665323#3 128665342 128665339#0 128665339#1 26837446 28160515 28160522 52255698#0 52255698#1 55221112 28160494#0 28160494#1 28160494#2 49304929#0 49304929#1 124034692#0 124034692#1 107578022 23032812#1 23032812#2 23032812#3 23032812#5 236894418 168200159#0 168200159#1 168200159#2 28160762 103392976 28160526#0 28160526#1 28160602#0 28160602#1 28160602#2 28160602#3"/>
    </vehicle>
    <vehicle id="13" depart="6.50">
        <route edges="124046235#0 124046235#1 124046235#2 108566789#0 108566789#1 108566789#2 -28866879#1 -28866879#0 223267594#1 -204388368#1 -204388368#0 -201610347#2 -201610347#1 -201610347#0 -28867286#1 -28867286#0 24163236 167959414#0 167959414#1 23921215 201610352 43015888#0 43015888#1 43015888#2 43015887#0"/>
    </vehicle>
    <vehicle id="14" depart="7.00">
        <route edges="26664581#2 26664581#3 26804625#1"/>
    </vehicle>
    <vehicle id="16" depart="8.00">
        <route edges="159080851#0 159080851#1 128669222 -184553799 -184553800 -284739924 -28160228#3 -28160228#1 -28160228#0 28160219 23046246#0 23046246#1 23764170 23046285#1 23046285#2 23764151#1 23764151#2 23046199#0 23046199#1 23046199#2 137470203#0 137470203#1 23425744#0 23425744#1 23425744#2 23425744#3 23425744#4 23425744#6 76843208#0 76843208#1 76843208#2 76843208#3 76843208#4 190639864 24164251 24164252 95640017 24450967#3 23560288#1 108573527#0 23560292 98554681#0 98554681#1 -222227764#0 -222227759"/>
    </vehicle>
    <vehicle id="17" depart="8.50">
        <route edges="23046285#1 23046285#2 23764150#0 23764150#1 23764150#3 23764153 185812467#0 185812467#2 252131968 252131965 4276749 108327346 185812466 200858513 200858512 200858510 28674038 184553797 284736388 84984953#1 84984953#2 84984953#3 84984953#5 106746456 106747310 106747313#0 106747313#1 23800894 106746605#2 106746605#3 184553786 28674721 52492243#0 52492242#0 52492242#1 28160895#0 28160895#1 26665059#0 26665059#1 26665059#2 26665059#3 26665059#4 23764796#0 23764796#1 23764796#2 23764637#0 23764637#1"/>
    </vehicle>
    <vehicle id="18" depart="9.00">
        <route edges="36780068#0 36780068#1 36780070#0 36780070#1 36780070#2 28677713#2 25631509#0 25631509#1 130807535 130807536 128665325#0 128665351 108565606#11 108565606#13 204390269 128665329#0 128665329#1 124034692#0 124034692#1 107578022 23032812#1 23032812#2 23032812#3 23032812#5 236894418 168200159#0 168200159#1 168200159#2 137470205 122187727#0 122187727#1 122187727#2 122187727#4 23442372#0 49305050 22978771#0 22978771#1 22978771#2 28867355#0 28867355#1 28867355#2 182437761#0 182437761#1 182437761#2 124034716#0 124034716#1 38144046 94110105#1"/>
    </vehicle>
    <vehicle id="19" depart="9.50">
        <route edges="4276749 108327346 185812466 200858513 200858512 200858510 28674038 184553797 144074557#0 144074557#1 84984959 184553802 24866083 128669223#0 128669223#1 128669223#2 159080853#0 -143577412#1 -143577412#0 -169786867#1 -169786867#0 -143577417#3 -143577417#2 -143577417#1 184553804 184553798#0 184553798#1 151417746#0 151417746#1 151417742#0 151417734#7"/>
    </vehicle>
    <vehicle id="20" depart="10.00">
        <route edges="24900120#2-AddedOnRampEdge 24900120#2 23788576 223306022 112718209 108327352#0 36842316 23788131 23788133 26804062 137470198#0 137470198#1 137470198#2 48299396#0 48299396#1 48299396#2 48299397#0 48299397#1 48299397#2 172064495 106132629 120513363 24902595 22886161#0 22886161#1"/>
    </vehicle>
    <vehicle id="21" depart="10.50">
        <route edges="45243216 24876987#2 24876987#3 24876987#4 24876987#5 24876987#6 48598973 22886161#0 22886161#1 205709427#0 48598972 205709430 23338773 108570430#0 108570430#1 242345820 242345819 107254160 107254181 190639860 4951429#0 4951429#1 4951429#2 4951429#4 4951429#5 22886081"/>
    </vehicle>
    <vehicle id="22" depart="11.00">
        <route edges="-222227759 222227762 166170341 222227759 222227764#0 222227764#2 222227764#3 112715260 22886695 112715265 200858505 112715255#0 112715255#1 139680005#0 139680005#1 -217026774#1 -217026774#0 -169787522#4 -169787522#3 -169787522#2 -169787522#1 -169787522#0 -108571049#4 -108571049#3 -108571049#2 -108571049#1 -108571049#0 48299395#1 48299395#2 48299395#3 128672635 48299396#0 48299396#1 48299396#2 48299397#0 48299397#1 48299397#2 172064495 48029338 172073409 48029337 242345820 242345819 178469119 242345821 178469121"/>
    </vehicle>
    <vehicle id="23" depart="11.50">
        <route edges="4951069#0 4951069#2 4951069#3 4951069#4 49305051 122110665#1 128669209 23442373#0 23442373#1 23442373#3 23442373#4 -232418217#2 -232418217#1 -232418217#0 -232418216#1 -232418216#0 -22886200 -232418214 -23590150 -201419943#0 -232419808 -232419809 -152146050 -23590149 23694687#1 181029791 23694690 181029794 215420487 215420488 200248589 140186776 181029793 108565603 290492196 290492199 32454489#0 32454489#1 32454489#2 48598982 32454222 -203150441#2 -203150441#1"/>
    </vehicle>
    <vehicle id="25" depart="12.50">
        <route edges="-201410450 201419943#0 23590150 232418214 22886200 232418216#0 232418216#1 232418217#0 232418217#1 232418217#2 23589548#0 23589548#1 202753971 204163774 184555071 201580879#1 35408132 24877400#0 24877400#1 35407999 10640841 10640841-AddedOffRampEdge 121900406 22886185#0 22886185#1 93470432#0 93470432#1 201496101 52492238#0 52492238#1 48646856#0 -25373198#1 -25373198#0 -13280171 284736384 144074557#0 144074557#1 84984959 184553802 24866083 128669223#0 128669223#1 128669223#2 159080853#0 -143577412#1 -143577412#0 -169786867#1 -169786867#0 -143577417#3 -143577417#2 -143577417#1 184553804 184553798#0 184553798#1 151417746#0 151417746#1 151417742#0 151417742#1 -151417735#1 -151417735#0"/>
    </vehicle>
    <vehicle id="27" depart="13.50">
        <route edges="171042461 28160130 84984948 128669235 128669222 24866085#0 24866085#1 144074556 84984953#1 84984953#2 84984953#3 84984953#5 106746456 106747310 106747313#0 106747313#1 23800894 106746605#2 106746605#3 184553786 28674721 52492243#0 52492242#0 52492242#1 28160895#0 28160895#1 28160895#2 203150437 51082359 201664369 125742173 185586081 185586082#1 128546763#0-AddedOnRampEdge 128546763#0 122110664 128546762#0 128546762#1 28677182 22978888#0 22978888#1 107305184-AddedOnRampEdge 107305184 107305183#0 107305183#1-AddedOnRampEdge 107305183#1 26784672#0 26784672#0-AddedOffRampEdge 26784672#1 128665321 192076281 192075624 192076282"/>
    </vehicle>
    <vehicle id="28" depart="14.00">
        <route edges="-181029793 -140186776 23752656 23752661 215420490 -181029794 -23694690 23694691 215420485 23590149 152146050 232419809 232419808 201419943#0 23590150 232418214 22886200 232418216#0 232418216#1 232418217#0 232418217#1 232418217#2 23589548#0 23589548#1 202753971 204163774 184555071 201580879#1 35408132 24877400#0 24877400#1 35407999 10640841 10640841-AddedOffRampEdge 121900406 22886185#0 22886185#1 22886233#0 22886233#1 22886233#2 201496104 95839244 49089532 107256112#0 107256112#1 143571776#0 143571776#1 143571776#2 23894684#0 23894684#1 23894683#0 23894683#1 23894683#2 23894682#2 252131971 -252131968 -185812467#2 24865860#0 24865860#1 23046285#1 23046285#2 23764151#1 23764151#2 23764151#3 23056706#0 23056706#1 23056706#3 23056706#5 23764171"/>
    </vehicle>
    <vehicle id="29" depart="14.50">
        <route edges="23694808#1 23694808#2 23694713#1 23694713#2 23694713#3 190022891 -190022892#1 -232183087#1 -232183087#0 -292411181 102290916#0 102290916#1 122185766#1 232183086 189465646#1 189465650#1 189465651#0 189465651#1 232183088 107254172 -107254160 178469119 242345821 178469121 108571049#0 108571049#1 108571049#2 108571049#3 108571049#4 169787522#0 169787522#1 169787522#2 169787522#3 169787522#4 131476998#0 131476998#1 131476998#2 131476998#3 -121482080 77161377 49089755 23337949#0 23337949#1 4367454#3 23502321 23502322 137470193#1 24900119 23764040#0 23764040#2 23764040#3 122602590#0 122602590#1 122602590#2 23425744#0 23425744#1 23425744#2 23571585#0 23571965"/>
    </vehicle>
    <vehicle id="30" depart="15.00">
        <route edges="-252131968 -185812467#2 24865860#0 24865860#1 23046285#1 23046285#2 23764151#1 23764151#2 23764151#3 23056706#0 23056706#1 23056706#3 23056706#5 23764171 139680053 -79660970#4 -79660970#2 -79660970#1 -79660970#0 143063412 143577417#0 143577417#1 143577417#2 143577417#3 169786867#0 169786867#1 143577412#0 143577412#1 159080853#1 159080850 143577374 221180477#0 25694100 26664485#0"/>
    </vehicle>
    <vehicle id="31" depart="15.50">
        <route edges="184686123 27430957 27434107#0 185586085#1 107305183#1-AddedOnRampEdge 107305183#1 26784672#0 26784672#0-AddedOffRampEdge 26784672#1 108564726#0 108564726#1 108564726#2 23442373#0 23442373#1 23442373#3 23442373#4 77052546#0 77052546#1 77052546#2 77051890#0 77051890#2 77051890#3 77051890#4 22886091 190639861 202753967 52722358 -232183088 -189465651#1 -189465651#0 -189465650#1 -189465646#1 -232183086"/>
    </vehicle>
    <vehicle id="32" depart="16.00">
        <route edges="-23894682#0 159083058#8 159083058#9 159083058#10 36842316 23788131 23788133 23338545 142304808 23338546#0 23338546#1 23338546#2 23599657#0 23599657#1 49089745#0 49089745#1 23276036 92403847 131476998#0 131476998#1 131476998#2 131476998#3 112715256 24164084#0 24164084#1 24164084#2 24164084#3 23560288#1 168301930#0 168301930#1 168301930#2 222227753#0 222227753#1 24451028#0 24451028#1 24451028#2"/>
    </vehicle>
    <vehicle id="33" depart="16.50">
        <route edges="49305054 121900403 99498970#1 26665145 24877400#0 24877400#1 122077319 205709426 48599202 23198667 205709430 23338773 108570430#0 108570430#1 242345820 242345819 178469119 242345821 178469121 108571049#0 108571049#1 108571049#2 108571049#3 108571049#4 169787522#0 169787522#1 169787522#2 169787522#3 169787522#4 217026774#0 217026774#1 -139680005#1 -139680005#0 -112715255#1 -112715255#0 112715257 23337954 232183090#0 232183090#1 -122157084 -95640018 112715261#0 112715261#1"/>
    </vehicle>
    <vehicle id="34" depart="17.00">
        <route edges="166652993#2 166652993#3 166652993#4 159080855#0 -169786873#9 -169786873#8 -169786873#7 -169786873#6 -169786873#5 -169786873#4 -169786873#3 -169786873#2 -169786873#1 -169786873#0 118575336#1 118575339#0 118575339#1 118575339#2 169786869 -184553799 -184553800 -284739924 -28160228#3 184553803#1"/>
    </vehicle>
    <vehicle id="35" depart="17.50">
        <route edges="-77161377 23276568#0 23276568#1 24163914 27537145#1 49089755"/>
    </vehicle>
    <vehicle id="36" depart="18.00">
        <route edges="-122602590#0 23426157 143328550#0 23764180 23764042#4 112718211 23788577 23788756 23788417 112718209 108327352#0 36842316 23788131 23788133 26804062 137470198#0 137470198#1 137470198#2 48299396#0 48299396#1 48299396#2 48299397#0 48299397#1 48299397#2 172064495 106132629 120513363 24902595 22886161#0 22886161#1 205709427#0 205709427#1 48599217 22886134 182034212 10640841 10640841-AddedOffRampEdge 22886177 49305054 121900403 106769424 185586086 182437761#0 182437761#1 182437761#2 124034716#0 130405508#3 130405508#4 4951071#1 4951071#2 22978823#0 27434105#1 22978903#0"/>
    </vehicle>
    <vehicle id="37" depart="18.50">
        <route edges="43675696 167782412 116237739 147124638 147124636+147125121 202550146 -125151692 -147124814#1 -147124814#0 -10140484#1 48520537 107293136 48520536#0 48520536#1 48598982 32454222 -203150441#2 -203150441#1 -203150441#0 -243722805#1 -243722805#0 -102290915 4245352#0 4245352#1 4245352#2 4247946#0 4247946#1 4247946#2 130410689 -190022892#1 -232183087#1 -232183087#0 -292411181 102290916#0 102290916#1 122185766#1 232183086 189465646#1 189465650#1 189465651#0 189465651#1 232183088 107254172 -107254160 178469119 242345821 178469121 108571049#0 108571049#1 108571049#2 108571049#3 108571049#4 169787522#0 169787522#1 169787522#2 169787522#3 169787522#4 131476998#0 131476998#1 131476998#2 131476998#3 112715256 24164084#0 24164084#1 24164084#2 24164084#3 23560288#1 168301930#0 168301930#1 168301930#2 222227753#0 222227753#1 202485844#0 202485844#1 202485844#2 202485844#3 202485844#4 202485844#5 28667831#0 28667831#1 184355731 243710015#0"/>
    </vehicle>
    <vehicle id="38" depart="19.00">
        <route edges="151417732#2 -222784463#1 -222784463#0 222784441 -222784462 -122979274#1 -122979274#0 -79660970#0 143063412 143577417#0 143577417#1 143577417#2 143577417#3 169786867#0 169786867#1 143577412#0 143577412#1 143577412#2 143577412#3 143577412#4 143577412#5 169786866#0 169786866#1 169786866#2 169786866#3 169786873#0 169786873#1 169786873#2 169786873#3 169786873#4 169786873#5 169786873#6 169786873#7 169786873#8 169786873#9 169786873#10 169786873#11 169786873#12 169786873#13 167959410#0 167959410#1 167959410#2 -24163236 28867286#0 28867286#1 201610347#0 201610347#1 201610347#2 204388368#0 204388368#1 204388368#2 97633574 26665054 52492241#0 52492241#1 93842567 93842562 51081578 201664375 130405508#0 130405508#1"/>
    </vehicle>
    <vehicle id="39" depart="19.50">
        <route edges="42739327#2 124046235#1 124046235#2 108566789#0 108566789#1 108566789#2 -28866879#1 -28866879#0 223267594#1 204388368#2 97633574 93842565 -204388368#2"/>
    </vehicle>
    <vehicle id="40" depart="20.00">
        <route edges="-139680005#0 -48045799 -200858503 -95930237#1 -95930237#0 23570137#0 23570137#1 23570137#2 -232183093#1 22886002#0 22886002#1 22886002#2 23578475#0 23578475#1 22895646#0 22895646#1 24432513 211042754 24432514 201008857 23591330#0 23591330#1 23591330#2 23591330#3 -196667874"/>
    </vehicle>
    <vehicle id="41" depart="20.50">
        <route edges="232183084#3-AddedOnRampEdge 232183084#3 22885698#0 201007331 32758333#0 32758333#1 26172984#0 26172984#1 291759443 291759245 130017523 232687721#0 232687721#1 232687721#2 232687722 124046259 232687723#0 232687723#1 232687723#2 122157084 -232183090#1 -232183090#0 -217026778#1 -217026778#0 48045799 139680005#0 139680005#1 -217026774#1 -217026774#0 -92403847 24163884 23338251 49089745#0 49089745#1 23338770 23276037"/>
    </vehicle>
    <vehicle id="42" depart="21.00">
        <route edges="23502338 77051887 77051893 77051888 77051890#2 77051890#3 77051890#4 10640840#0 10640840#1 10640840#3 184686129#2 184686129#3 184686129#4 147125842 147125840 202304086#0 48599205 48599217 22886134 182034212 10640841 10640841-AddedOffRampEdge 22886177 49305054 121900403 106769424 185586086 182437761#0 182437761#1 182437761#2 124034716#0 124034716#1 22978903#3 94110108#1"/>
    </vehicle>
    <vehicle id="43" depart="21.50">
        <route edges="222227764#2 222227764#3 112715260 22886695 112715265 200858505 112715255#0 112715255#1 139680005#0 139680005#1 -217026774#1 -217026774#0 -169787522#4 -169787522#3 -169787522#2 -169787522#1 -169787522#0 -108571049#4 -108571049#3 -108571049#2 -108571049#1 -108571049#0 48299395#1 48299395#2 48299395#3 128672635 48299396#0 48299396#1 48299396#2 48299397#0 48299397#1 48299397#2 172064495 106132629 120513363 24902595 22886161#0 22886161#1 205709427#0 205709427#1 48599217 22886134 182034212 10640841 10640841-AddedOffRampEdge 121900406 22886185#0 22886185#1 93470432#0 93470432#1 201496101 52492238#0"/>
    </vehicle>
    <vehicle id="44" depart="22.00">
        <route edges="-120104271 22886388#2 22886388#3 -23046199#2 -23046199#1 -23046199#0 23764151#3 23764150#0 23764150#1 23764150#3 23764153 185812467#0 185812467#2 252131968 252131965 4276749 108327346 185812466 200858513 200858512 200858510 28674038 184553797 284736388 84984953#1 84984953#2 84984953#3 84984953#5 106746456 106747310 106747313#0 106747313#1 23800894 106746605#2 106746605#3 184553786 28674721 52492243#0 52492242#0 52492242#1 93842567 93842562 51081578 201664375 130405508#0 130405508#1 94110108#2 27434109#0"/>
    </vehicle>
    <vehicle id="45" depart="22.50">
        <route edges="201410450 -201419944#2 -201419944#1 -232419808 -232419809 -152146050 -23590149 23694692 23694678 151796760 23694682#0 23694682#1 23694713#0 23694713#1 23694713#2 23694713#3 190022891 -190022892#1 -232183087#1 -232183087#0 -292411181 102290916#0 102290916#1 122185766#1 232183086 -189465645 -189558676#2 -189558676#1 -189558676#0 232183091#0 232183091#1 -22885903#2 -22885903#1 -22885903#0 23568621#1 23568621#2 23568621#5 23568621#6 22886002#1 22886002#2 23578476#0 23780632#0 23780632#1 23780632#2"/>
    </vehicle>
    <vehicle id="46" depart="23.00">
        <route edges="99368266 22979122#1 36779948#0 36779948#1 48520537 107293136 48520536#0 48520536#1 48598982 122109226 31875197#0 31875197#1 31875197#2 108565600 -108565603 -181029793 -140186776 23752656 23752661 215420490 -181029794 -23694690 23694691 215420485 23590149 152146050 232419809 232419808 201419943#0 23590150 232418214 22886200 232418216#0 232418216#1 232418217#0 232418217#1 232418217#2 23589548#0 23589548#1 202753971 204163774 184555071 201580879#1 35408132 24180919#0 -128669229 28867355#1 28867355#2 182437761#0 182437761#1 182437761#2 124034708 124034712#0 124034712#1 124034712#2 26665321 184553789 184553787 29754417 96641134 29754567 -184553786 29755320 106746453#1 24866032 -106746606#2 -106746606#1"/>
    </vehicle>
    <vehicle id="48" depart="24.00">
        <route edges="93470432#1 201496101 52492238#0 52492238#1 48646856#0 25372317#0 25372317#1 212430475#0 212430475#2 22886233#1 22886233#2 201496104 95839244 -172064502 -107256113#1 -107256113#0 107256111#0 107256111#1 165335372 48598977#0 48598977#1 48598977#2 24877150#0 159813260#0 159813260#1 141859892#2 141859892#3"/>
    </vehicle>
    <vehicle id="49" depart="24.50">
        <route edges="143571776#3 143577380#0 143577380#1 124516078#0 124516078#1 24876989#0 24876989#1 22886247 24876987#0 24876987#1 24876987#2 24876987#3 24876987#4 24876987#5 24876987#6 48598973 22886161#0 22886161#1 205709427#0 205709427#1 48599217 22886136 4247947#0 202304085 147125841#0 147125841#1 147125844#0 147125844#1 147125844#2 147125844#3 128672638#0 128672638#1 128672638#2 204007060#0 204007060#1 137470200#0 137470200#1 137470200#2 122185779 292493447#0 292493447#1 23694687#1 181029791 23694690 181029794 215420487 215420488 200248589 140186776 181029793 108565603 290492196 290492199 32454489#0 32454489#1 32454489#2 24492397#0 24492397#1 48520538 287483284 22979118 36779947 215331126#0 215331126#1 36779948#0 36779948#1 10140484#1 147124814#0 147124814#1 125151692 147124637 32504840 22880328#1 22880328#2 123817468#0 123817468#1 22880326#0 22880326#1 22880326#2 22880319#0 22880319#1 -52938659#2 -52938659#1 -52938659#0 123817463#0 123817463#1 123817463#2"/>
    </vehicle>
    <vehicle id="50" depart="25.00">
        <route edges="-25695354#0 22978893#2 28867355#2 182437761#0 182437761#1 25695354#1 25695354#2 27434109#1 27434109#2 27434109#3 106769418#2 106769418#3 106769419 106769417 22886185#0 22886185#1 22886233#0 22886233#1 22886233#2 201496104 95839244 49089532 107256112#0 107256112#1 143571776#0 143571776#1 143571776#2 143571776#3 24902594#1 200858509#1 200858508"/>
    </vehicle>
    <vehicle id="51" depart="25.50">
        <route edges="137470195#1 49089747 95930240 95930237#0 95930237#1 200858503 48045799 139680005#0 139680005#1 -217026774#1 -217026774#0 131476998#0 131476998#1 131476998#2 131476998#3 -121482080 77161377 49089755 23337949#0 23337949#1 4367454#3 23502321 23502322 4367479 24900120#1 24900120#2-AddedOnRampEdge 24900120#2 23788576 223306022 112718209 108327352#0"/>
    </vehicle>
    <vehicle id="52" depart="26.00">
        <route edges="-167959414#1 -167959414#0 -24163236 28867286#0 28867286#1 201610347#0 201610347#1 201610347#2 204388368#0 204388368#1 204388368#2 97633574 26665054 52492241#0 52492241#1 93842567 93842562 51081578 201664375 23607569 -124034712#2 26665408 26665398#1 -25695354#3 27434109#1 27434109#2 27434109#3 106769418#2 106769418#3 99498970#1 26665145 24877400#0 24877400#1 122077319 205709426 48599202 23198667 205709430 23338773 108570430#0 108570430#1 -48029337 -172073409 -48029338 106132629"/>
    </vehicle>
    <vehicle id="53" depart="26.50">
        <route edges="159813260#1 141859892#2 201496098 140507903 201496091 172064504 106132629 120513363 24902595 22886161#0 22886161#1 205709427#0 205709427#1 48599217 22886134 182034212 10640841 10640841-AddedOffRampEdge 22886177 49305054 121900403 106769424 185586086 28867355#3 28867323#1"/>
    </vehicle>
    <vehicle id="55" depart="27.50">
        <route edges="50602036 24492142 201194127#1 201194127#2 -292411181 102290916#0 102290916#1 122185766#1 232183086 189465646#1 189465650#1 189465651#0 189465651#1 204165876 204165875 23694979#0 23694979#1 23694979#2 190639863#0 190639863#1 23032806#0 23032806#1 137470199#0 137470199#1 52447705#0 52447705#1 4247949 51940146 4247948 137470204#2 137470204#3 190022907 122187727#0"/>
    </vehicle>
    <vehicle id="56" depart="28.00">
        <route edges="23571764#2 153582455#4 153582455#5 153582455#6 153582455#7 153582455#8 122602591 24900119 23764040#0 23764040#2 23764040#3 23426157 143328550#0 143328550#2 23764187#0 23764187#1 23764151#2 23764151#3 23056706#0 23056706#1 23056706#3 23056706#5 23764171 139680059 23894770#1 139680056#0 23894767#0 23894767#1 41118115#0 41118115#1 41118115#2"/>
    </vehicle>
    <vehicle id="58" depart="29.00">
        <route edges="-23894682#1 13279890#0 13279890#1 13279890#2 13279890#3 13279890#4 143571776#2 143571776#3 143577380#0 107256114#0 107256114#1 107256114#2 107256114#3 107256114#4 107256114#5 107256114#6 35275275 26665226#0 26665226#1 26665226#2 26665226#3 35406491#0 35406491#1 29754417 96641134 51081616 52492243#0 52492242#0 52492242#1 28160895#0 28160895#1 28160895#2 203150437 28676315 51082440 28676461#0 28676461#1 28676461#1-AddedOffRampEdge 28676658#0"/>
    </vehicle>
    <vehicle id="59" depart="29.50">
        <route edges="185586109 185586081 185586082#1 128546763#0-AddedOnRampEdge 128546763#0 122110664 128546762#0 128546762#1 28677182 22978888#0 22978888#1 107305184-AddedOnRampEdge 107305184 107305183#0 107305183#1-AddedOnRampEdge 107305183#1 26784672#0 26784672#0-AddedOffRampEdge 26784672#1 128665321 192076281 23442669 192075622 23442672#0 23442672#1"/>
    </vehicle>
    <vehicle id="60" depart="30.00">
        <route edges="24609412#1 22880282 -4951340 32504840 22880328#1 22880328#2 22880307#0 -22880328#1 -32504840 147124638 147124636+147125121 202550146 -125151692 -147124814#1 -147124814#0 -10140484#1 48520537 107293136 48520536#0 48520536#1 48598982 32454222 -203150441#2 -203150441#1 -203150441#0 -243722805#1 -243722805#0 -102290915 4245352#0 4245352#1 4245352#2 4247946#0 4247946#1 4247946#2 130410689 -190022892#1 42752305 190022921#0 190022921#1 42752307#0 42752307#1 31875385 24492032 190043639#0 22885654 235322572#0 235322572#1 203150440 201008858#0 201008858#1 201008858#2 201008858#3 201008856 201008857 23591330#0 23591330#1 23591330#2 24432504 165613073 -22895646#1"/>
    </vehicle>
    <vehicle id="62" depart="31.00">