<?xml version="1.0" encoding="UTF-8"?>

<!-- generated on Wed Jul 30 21:39:12 2014 by SUMO polyconvert Version 0.17.1
<?xml version="1.0" encoding="UTF-8"?>

<configuration xmlns:xsi="http://www.w3.org/2001/XMLSchema-instance" xsi:noNamespaceSchemaLocation="http://sumo.sf.net/xsd/polyconvertConfiguration.xsd">

    <input>
        <net-file value="/home/pierpaolo/Scrivania/scriptMirco/scriptMirco/facilitatore/v0.4/v0.4/net/Roma2/Roma2.net.xml"/>
        <osm-files value="/home/pierpaolo/Scrivania/scriptMirco/scriptMirco/facilitatore/v0.4/v0.4/Roma2.osm"/>
        <type-file value="requiredFiles/typemap_example.xml"/>
    </input>

    <output>
        <output-file value="/home/pierpaolo/Scrivania/scriptMirco/scriptMirco/facilitatore/v0.4/v0.4/net/Roma2/Roma2.poly.xml"/>
    </output>

    <pruning>
        <prune.in-net value="true"/>
    </pruning>

    <report>
        <verbose value="true"/>
    </report>

</configuration>
-->

<shapes>
    <poly id="100017594" type="building" color="255,230,230" fill="1" layer="-1.00" shape="2161.72,1057.99 2166.71,1063.43 2172.65,1058.01 2167.64,1052.58 2161.72,1057.99"/>
    <poly id="100017595" type="building" color="255,230,230" fill="1" layer="-1.00" shape="2157.21,1065.60 2153.33,1065.37 2153.08,1069.59 2156.96,1069.82 2157.21,1065.60"/>
    <poly id="100017595#1" type="shop" color="237,199,255" fill="1" layer="-1.00" shape="2157.21,1065.60 2153.33,1065.37 2153.08,1069.59 2156.96,1069.82 2157.21,1065.60"/>
    <poly id="100300109" type="historic" color="128,255,128" fill="1" layer="-1.00" shape="2428.92,1129.38 2432.69,1134.20 2442.64,1132.35 2435.79,1123.51 2428.92,1129.38"/>
    <poly id="100304832" type="historic" color="128,255,128" fill="1" layer="-1.00" shape="2017.72,951.67 2007.08,981.43 2010.22,986.82 2027.14,984.46 2030.56,984.88 2032.59,984.23 2033.20,984.92 2035.49,983.29 2039.41,982.74 2042.73,982.28 2048.81,981.42 2051.62,979.67 2052.05,977.32 2052.00,975.64 2040.53,959.54 2037.51,955.31 2029.12,961.86 2018.96,951.84 2017.72,951.67"/>
    <poly id="100304835" type="building" color="255,230,230" fill="1" layer="-1.00" shape="2040.53,959.54 2024.18,971.81 2022.62,974.70 2022.35,977.08 2022.55,981.05 2024.55,983.25 2027.14,984.46 2030.56,984.88 2032.59,984.23 2033.20,984.92 2035.49,983.29 2038.55,981.09 2039.41,982.74 2042.73,982.28 2052.00,975.64 2040.53,959.54"/>
    <poly id="100304836" type="building" color="255,230,230" fill="1" layer="-1.00" shape="1956.79,930.66 1943.51,920.88 1924.55,946.45 1937.83,956.23 1956.79,930.66"/>
    <poly id="101016761" type="amenity" color="237,199,199" fill="1" layer="-1.00" shape="3420.36,2237.95 3452.49,2200.86 3453.77,2199.39 3461.43,2206.02 3466.51,2210.44 3429.04,2253.25 3419.69,2245.13 3417.22,2247.95 3415.16,2246.17 3413.34,2248.26 3409.13,2244.60 3417.29,2235.28 3420.36,2237.95"/>
    <poly id="101016761#1" type="building" color="255,230,230" fill="1" layer="-1.00" shape="3420.36,2237.95 3452.49,2200.86 3453.77,2199.39 3461.43,2206.02 3466.51,2210.44 3429.04,2253.25 3419.69,2245.13 3417.22,2247.95 3415.16,2246.17 3413.34,2248.26 3409.13,2244.60 3417.29,2235.28 3420.36,2237.95"/>
    <poly id="101016763" type="amenity" color="237,199,199" fill="1" layer="-1.00" shape="3391.33,2277.45 3414.29,2251.38 3427.55,2263.31 3404.50,2289.27 3391.33,2277.45"/>
    <poly id="101016763#1" type="building" color="255,230,230" fill="1" layer="-1.00" shape="3391.33,2277.45 3414.29,2251.38 3427.55,2263.31 3404.50,2289.27 3391.33,2277.45"/>
    <poly id="101016766" type="amenity" color="237,199,199" fill="1" layer="-1.00" shape="3417.70,2282.85 3420.08,2280.06 3417.44,2277.59 3423.60,2270.86 3426.28,2273.22 3429.79,2269.35 3446.71,2283.35 3433.78,2296.61 3417.70,2282.85"/>
    <poly id="101016766#1" type="building" color="255,230,230" fill="1" layer="-1.00" shape="3417.70,2282.85 3420.08,2280.06 3417.44,2277.59 3423.60,2270.86 3426.28,2273.22 3429.79,2269.35 3446.71,2283.35 3433.78,2296.61 3417.70,2282.85"/>
    <poly id="101019053" type="amenity" color="237,199,199" fill="1" layer="-1.00" shape="3297.41,1554.44 3332.24,1577.40 3308.97,1612.43 3299.65,1606.29 3296.05,1603.90 3283.46,1595.61 3264.32,1624.42 3255.00,1618.28 3273.29,1590.75 3284.17,1574.37 3297.41,1554.44"/>
    <poly id="101019053#1" type="building" color="255,230,230" fill="1" layer="-1.00" shape="3297.41,1554.44 3332.24,1577.40 3308.97,1612.43 3299.65,1606.29 3296.05,1603.90 3283.46,1595.61 3264.32,1624.42 3255.00,1618.28 3273.29,1590.75 3284.17,1574.37 3297.41,1554.44"/>
    <poly id="101023646" type="amenity" color="237,199,199" fill="1" layer="-1.00" shape="2206.91,570.21 2243.68,584.39 2204.88,687.52 2167.53,673.23 2176.30,650.20 2185.76,625.60 2195.17,600.97 2206.91,570.21"/>
    <poly id="101023646#1" type="building" color="255,230,230" fill="1" layer="-1.00" shape="2206.91,570.21 2243.68,584.39 2204.88,687.52 2167.53,673.23 2176.30,650.20 2185.76,625.60 2195.17,600.97 2206.91,570.21"/>
    <poly id="101066735" type="residential" color="235,235,227" fill="1" layer="-3.00" shape="2227.99,854.17 2289.76,803.55 2348.06,878.18 2285.34,927.05 2227.99,854.17"/>
    <poly id="101067920" type="residential" color="235,235,227" fill="1" layer="-3.00" shape="2296.60,793.60 2353.93,865.59 2387.66,769.64 2318.25,741.48 2296.60,793.60"/>
    <poly id="101067925" type="residential" color="235,235,227" fill="1" layer="-3.00" shape="2277.07,795.93 2187.36,760.83 2179.76,780.63 2176.68,788.66 2220.60,845.51 2277.07,795.93"/>
    <poly id="101068944" type="residential" color="235,235,227" fill="1" layer="-3.00" shape="2116.95,666.57 2104.55,699.33 2168.36,780.01 2199.38,697.89 2116.95,666.57"/>
    <poly id="101207768" type="building" color="255,230,230" fill="1" layer="-1.00" shape="3406.49,2122.32 3423.60,2103.29 3420.20,2100.25 3489.77,2022.88 3493.94,2026.60 3510.76,2007.89 3521.53,2017.52 3502.29,2038.92 3531.98,2065.43 3519.68,2079.11 3489.48,2052.15 3476.11,2067.02 3501.46,2089.65 3489.20,2103.29 3464.64,2081.37 3450.76,2096.81 3480.90,2123.71 3468.65,2137.33 3438.10,2110.06 3417.92,2132.51 3406.49,2122.32"/>
    <poly id="101222384" type="building" color="255,230,230" fill="1" layer="-1.00" shape="920.19,2603.01 941.78,2534.46 949.55,2536.88 947.96,2541.91 961.69,2546.20 963.28,2541.12 970.58,2543.39 948.73,2612.79 942.46,2610.83 943.19,2608.53 930.09,2604.44 929.61,2605.96 920.19,2603.01"/>
    <poly id="102677832" type="historic" color="128,255,128" fill="0" layer="-1.00" shape="1148.83,2729.50 1181.57,2732.09 1205.69,2755.77 1209.06,2758.69"/>
    <poly id="102677834" type="historic" color="128,255,128" fill="0" layer="-1.00" shape="1223.47,2772.92 1266.43,2798.56 1297.39,2818.58"/>
    <poly id="103183281" type="unknown" color="51,128,255" fill="0" layer="-1.00" shape="4257.96,963.93 4215.25,955.70 4147.10,934.41 4072.62,902.17 4013.10,875.43 3963.64,856.58 3926.30,845.58 3873.95,833.75 3809.92,818.34 3706.21,794.07 3630.94,776.36 3560.05,761.82 3528.98,757.13 3482.83,753.21 3456.64,752.00 3429.52,752.28 3401.63,751.45 3366.96,753.94 3341.96,757.03 3317.05,761.82 3242.17,790.96 3220.13,809.41 3194.60,833.19"/>
    <poly id="103184902" type="unknown" color="51,128,255" fill="0" layer="-1.00" shape="2063.78,2691.27 2085.13,2672.88 2100.64,2657.56"/>
    <poly id="103392169" type="amenity" color="237,199,199" fill="1" layer="-1.00" shape="995.71,2078.80 999.57,2081.58 1000.87,2080.43 1002.20,2080.28 1003.53,2079.91 1004.29,2079.22 1004.93,2077.99 1004.44,2076.67 1003.97,2075.91 1003.94,2074.80 1004.37,2074.12 1000.61,2071.46 999.42,2072.38 998.41,2072.41 997.30,2072.45 996.30,2072.70 995.44,2073.49 995.02,2074.50 995.05,2075.50 995.66,2076.93 996.12,2077.80 995.71,2078.80"/>
    <poly id="103392978" type="building" color="255,230,230" fill="1" layer="-1.00" shape="957.40,2070.95 967.71,2080.74 960.25,2086.80 957.38,2089.14 948.60,2078.42 957.40,2070.95"/>
    <poly id="103392980" type="building" color="255,230,230" fill="1" layer="-1.00" shape="919.51,2077.60 922.80,2069.86 928.37,2056.82 947.47,2062.80 947.87,2065.24 925.35,2083.20 919.51,2077.60"/>
    <poly id="103393488" type="building" color="255,230,230" fill="1" layer="-1.00" shape="967.71,2080.74 977.04,2091.44 969.22,2098.00 964.87,2098.01 962.21,2094.77 965.15,2092.24 960.25,2086.80 967.71,2080.74"/>
    <poly id="103393668" type="building" color="255,230,230" fill="1" layer="-1.00" shape="977.04,2091.44 981.28,2095.77 972.92,2106.66 968.31,2101.36 970.70,2099.40 969.22,2098.00 977.04,2091.44"/>
    <poly id="103394973" type="building" color="255,230,230" fill="1" layer="-1.00" shape="977.57,2109.51 984.86,2100.20 986.42,2100.05 996.86,2110.50 996.22,2111.63 992.52,2118.51 991.40,2117.98 990.46,2120.12 985.55,2116.08 977.57,2109.51"/>
    <poly id="103396996" type="building" color="255,230,230" fill="1" layer="-1.00" shape="996.86,2110.50 999.97,2113.79 1006.28,2120.44 1000.49,2131.92 993.05,2128.40 990.78,2127.33 991.62,2125.63 988.56,2123.61 990.46,2120.12 991.40,2117.98 992.52,2118.51 996.22,2111.63 996.86,2110.50"/>
    <poly id="103397191" type="building" color="255,230,230" fill="1" layer="-1.00" shape="956.12,2034.48 945.49,2031.21 948.04,2022.97 974.68,2029.95 974.99,2029.39 987.00,2032.71 986.95,2034.58 968.46,2049.44 953.01,2044.53 954.45,2039.87 956.12,2034.48"/>
    <poly id="103397192" type="building" color="255,230,230" fill="1" layer="-1.00" shape="953.01,2044.53 938.77,2040.16 941.87,2030.10 945.49,2031.21 956.12,2034.48 954.45,2039.87 953.01,2044.53"/>
    <poly id="103765141" type="building" color="255,230,230" fill="1" layer="-1.00" shape="1044.93,2133.54 1048.88,2124.38 1050.98,2123.98 1078.58,2138.48 1071.96,2150.01 1070.74,2152.13 1065.12,2146.99 1067.58,2143.32 1061.81,2139.97 1060.13,2143.35 1044.93,2133.54"/>
    <poly id="103765185" type="building" color="255,230,230" fill="1" layer="-1.00" shape="1015.44,2174.63 1027.13,2151.67 1033.53,2149.81 1051.77,2168.03 1040.65,2180.11 1037.67,2177.20 1036.37,2178.46 1037.40,2179.43 1032.74,2183.66 1026.89,2177.84 1025.29,2180.34 1015.44,2174.63"/>
    <poly id="103765186" type="building" color="255,230,230" fill="1" layer="-1.00" shape="1041.21,2142.15 1044.93,2133.54 1060.13,2143.35 1057.37,2146.67 1062.73,2150.55 1065.12,2146.99 1070.74,2152.13 1074.18,2153.94 1071.81,2156.67 1079.56,2162.88 1071.73,2172.99 1041.21,2142.15"/>
    <poly id="103765277" type="building" color="255,230,230" fill="1" layer="-1.00" shape="1052.98,2114.52 1063.21,2094.92 1098.50,2109.97 1092.74,2126.22 1097.03,2128.31 1094.61,2137.15 1083.32,2131.61 1084.79,2128.67 1069.42,2120.80 1068.45,2122.85 1052.98,2114.52"/>
    <poly id="103765349" type="building" color="255,230,230" fill="1" layer="-1.00" shape="1000.49,2131.92 992.71,2147.67 978.56,2139.55 982.47,2132.45 986.70,2134.40 989.25,2135.57 993.05,2128.40 1000.49,2131.92"/>
    <poly id="103765354" type="building" color="255,230,230" fill="1" layer="-1.00" shape="977.57,2109.51 962.23,2129.50 971.59,2137.20 977.93,2129.47 982.47,2132.45 986.70,2134.40 990.78,2127.33 991.62,2125.63 988.56,2123.61 982.75,2119.35 985.55,2116.08 977.57,2109.51"/>
    <poly id="103770247" type="landuse" color="194,194,130" fill="1" layer="-3.00" shape="1205.96,2022.66 1205.75,2024.04 1206.00,2025.34 1206.62,2026.46 1207.50,2027.29 1197.70,2049.26 1179.87,2041.39 1192.49,2015.37 1205.96,2022.66"/>
    <poly id="103770247#1" type="leisure" color="207,245,201" fill="1" layer="-2.00" shape="1205.96,2022.66 1205.75,2024.04 1206.00,2025.34 1206.62,2026.46 1207.50,2027.29 1197.70,2049.26 1179.87,2041.39 1192.49,2015.37 1205.96,2022.66"/>
    <poly id="103770248" type="landuse" color="194,194,130" fill="1" layer="-3.00" shape="1212.78,2026.85 1228.27,2035.84 1218.17,2058.29 1199.55,2050.08 1209.03,2027.94 1210.03,2028.06 1211.33,2027.81 1212.46,2027.19 1212.78,2026.85"/>
    <poly id="103770248#1" type="leisure" color="207,245,201" fill="1" layer="-2.00" shape="1212.78,2026.85 1228.27,2035.84 1218.17,2058.29 1199.55,2050.08 1209.03,2027.94 1210.03,2028.06 1211.33,2027.81 1212.46,2027.19 1212.78,2026.85"/>
    <poly id="103770249" type="landuse" color="194,194,130" fill="1" layer="-3.00" shape="1199.05,2001.84 1193.25,2013.80 1206.64,2021.41 1207.35,2020.65 1208.49,2020.03 1209.78,2019.78 1210.82,2019.92 1213.37,2013.87 1199.05,2001.84"/>
    <poly id="103770249#1" type="leisure" color="207,245,201" fill="1" layer="-2.00" shape="1199.05,2001.84 1193.25,2013.80 1206.64,2021.41 1207.35,2020.65 1208.49,2020.03 1209.78,2019.78 1210.82,2019.92 1213.37,2013.87 1199.05,2001.84"/>
    <poly id="103775332" type="building" color="255,230,230" fill="1" layer="-1.00" shape="1205.14,2100.60 1174.05,2087.05 1180.09,2073.29 1174.62,2070.91 1169.61,2082.30 1168.52,2081.83 1167.79,2083.48 1151.24,2076.26 1136.48,2069.83 1141.49,2058.41 1156.26,2064.83 1158.72,2059.23 1156.14,2058.10 1158.12,2053.60 1160.90,2054.82 1164.13,2047.47 1149.94,2041.28 1155.84,2027.83 1163.39,2031.12 1170.89,2014.05 1150.58,2005.21 1152.34,2001.19 1139.69,1995.68 1139.07,1997.08 1111.26,1984.96 1102.26,2005.45 1116.59,2011.68 1101.79,2045.37 1104.08,2046.37 1100.57,2054.34 1083.76,2047.02 1083.23,2048.25 1074.86,2067.31 1150.51,2100.27 1153.15,2101.42 1155.98,2094.98 1159.28,2096.43 1150.11,2117.32 1168.40,2125.29 1177.71,2104.08 1195.02,2111.62 1206.19,2114.58 1222.34,2118.77 1221.99,2102.92 1209.66,2100.06 1205.14,2100.60"/>
    <poly id="103919406" type="building" color="255,230,230" fill="1" layer="-1.00" shape="2389.27,1059.76 2428.65,1108.78 2488.65,1056.87 2450.86,1011.02 2389.27,1059.76"/>
    <poly id="104564310" type="building" color="255,230,230" fill="1" layer="-1.00" shape="2413.76,1924.78 2411.79,1923.04 2408.52,1926.69 2391.70,1911.75 2400.74,1901.66 2409.81,1909.62 2408.94,1911.19 2413.36,1915.11 2411.74,1916.94 2416.78,1921.42 2413.76,1924.78"/>
    <poly id="104564314" type="building" color="255,230,230" fill="1" layer="-1.00" shape="2441.07,1912.13 2454.24,1896.88 2463.98,1905.44 2461.55,1908.12 2468.91,1914.12 2461.42,1922.44 2454.27,1916.32 2450.83,1920.58 2441.07,1912.13"/>
    <poly id="104564316" type="building" color="255,230,230" fill="1" layer="-1.00" shape="2480.45,1901.19 2473.73,1908.28 2476.83,1911.06 2473.28,1915.16 2487.09,1928.73 2490.93,1924.90 2494.38,1928.46 2501.82,1920.32 2481.52,1900.39 2480.45,1901.19"/>
    <poly id="104564318" type="building" color="255,230,230" fill="1" layer="-1.00" shape="2479.60,1944.65 2485.64,1937.98 2490.74,1942.13 2494.59,1945.27 2497.87,1941.12 2507.13,1949.50 2496.68,1961.68 2485.55,1952.35 2486.91,1951.26 2479.60,1944.65"/>
    <poly id="104564319" type="building" color="255,230,230" fill="1" layer="-1.00" shape="2492.61,1929.94 2494.38,1928.46 2501.82,1920.32 2518.50,1936.58 2507.13,1949.50 2497.87,1941.12 2501.20,1937.25 2492.61,1929.94"/>
    <poly id="104564321" type="building" color="255,230,230" fill="1" layer="-1.00" shape="2441.07,1912.13 2450.83,1920.58 2447.76,1923.99 2455.28,1929.87 2449.02,1936.55 2442.28,1930.92 2439.16,1934.57 2429.00,1925.98 2441.07,1912.13"/>
    <poly id="104564322" type="building" color="255,230,230" fill="1" layer="-1.00" shape="2360.44,1967.32 2363.20,1969.62 2370.22,1976.38 2391.61,1951.48 2382.52,1943.40 2381.61,1942.35 2360.44,1967.32"/>
    <poly id="104564324" type="building" color="255,230,230" fill="1" layer="-1.00" shape="2417.81,1920.33 2431.76,1903.78 2422.86,1895.88 2422.10,1897.12 2421.00,1896.90 2409.81,1909.62 2408.94,1911.19 2413.36,1915.11 2411.74,1916.94 2416.78,1921.42 2417.81,1920.33"/>
    <poly id="104564326" type="building" color="255,230,230" fill="1" layer="-1.00" shape="2358.71,1989.92 2370.22,1976.38 2363.20,1969.62 2351.04,1982.61 2358.71,1989.92"/>
    <poly id="104564328" type="building" color="255,230,230" fill="1" layer="-1.00" shape="2422.86,1895.88 2431.76,1903.78 2443.79,1890.33 2434.62,1882.20 2432.09,1885.02 2422.50,1876.50 2415.30,1884.55 2425.16,1893.31 2422.86,1895.88"/>
    <poly id="104564330" type="building" color="255,230,230" fill="1" layer="-1.00" shape="2454.24,1896.88 2463.98,1905.44 2465.65,1903.51 2472.61,1909.47 2473.73,1908.28 2480.45,1901.19 2464.33,1885.08 2454.24,1896.88"/>
    <poly id="104564331" type="building" color="255,230,230" fill="1" layer="-1.00" shape="2382.52,1943.40 2391.61,1951.48 2404.04,1937.50 2391.01,1925.61 2384.04,1934.35 2386.99,1938.75 2382.52,1943.40"/>
    <poly id="104564333" type="building" color="255,230,230" fill="1" layer="-1.00" shape="2485.04,1937.23 2488.73,1933.46 2491.42,1935.98 2490.23,1937.29 2493.09,1939.54 2490.74,1942.13 2485.64,1937.98 2485.04,1937.23"/>
    <poly id="105281819" type="building" color="255,230,230" fill="1" layer="-1.00" shape="2177.32,1322.21 2165.70,1308.05 2175.95,1299.00 2178.05,1301.58 2182.42,1297.57 2192.89,1308.80 2177.32,1322.21"/>
    <poly id="105281822" type="building" color="255,230,230" fill="1" layer="-1.00" shape="2192.89,1308.80 2222.61,1283.04 2214.18,1273.35 2210.76,1276.49 2209.06,1274.66 2207.68,1275.91 2200.48,1267.54 2203.51,1264.83 2199.36,1259.70 2191.27,1266.56 2203.32,1279.57 2201.61,1280.99 2202.98,1282.52 2199.05,1285.82 2197.79,1284.23 2195.88,1285.52 2184.26,1272.73 2175.47,1279.93 2187.79,1293.01 2182.42,1297.57 2192.89,1308.80"/>
    <poly id="105281824" type="building" color="255,230,230" fill="1" layer="-1.00" shape="2117.66,1399.92 2133.88,1417.57 2135.67,1415.94 2119.44,1398.29 2117.66,1399.92"/>
    <poly id="105281824#1" type="historic" color="128,255,128" fill="1" layer="-1.00" shape="2117.66,1399.92 2133.88,1417.57 2135.67,1415.94 2119.44,1398.29 2117.66,1399.92"/>
    <poly id="105281825" type="historic" color="128,255,128" fill="1" layer="-1.00" shape="2123.07,1394.15 2136.59,1382.72 2142.17,1393.39 2138.08,1395.91 2139.89,1400.02 2144.78,1397.73 2148.61,1406.19 2140.02,1414.55 2123.07,1394.15"/>
    <poly id="105281826" type="historic" color="128,255,128" fill="1" layer="-1.00" shape="2114.88,1400.90 2131.84,1421.30 2140.02,1414.55 2123.07,1394.15 2114.88,1400.90"/>
    <poly id="105737526" type="building" color="255,230,230" fill="1" layer="-1.00" shape="2106.49,1381.43 2098.54,1372.69 2104.89,1366.92 2101.30,1362.99 2095.12,1368.93 2085.57,1358.65 2095.33,1349.83 2098.81,1353.27 2100.09,1352.07 2102.11,1354.13 2107.31,1349.46 2123.24,1367.19 2106.49,1381.43"/>
    <poly id="105737530" type="building" color="255,230,230" fill="1" layer="-1.00" shape="2121.01,1337.96 2136.64,1356.08 2152.55,1342.70 2144.41,1334.12 2139.82,1338.01 2135.51,1333.11 2140.26,1329.25 2129.21,1317.06 2121.14,1323.93 2126.38,1329.63 2126.82,1332.99 2125.89,1333.82 2121.01,1337.96"/>
    <poly id="105737531" type="building" color="255,230,230" fill="1" layer="-1.00" shape="2090.34,1395.02 2079.29,1381.35 2095.12,1368.93 2098.54,1372.69 2106.49,1381.43 2090.34,1395.02"/>
    <poly id="105737534" type="building" color="255,230,230" fill="1" layer="-1.00" shape="2100.09,1352.07 2102.11,1354.13 2107.31,1349.46 2121.01,1337.96 2125.89,1333.82 2123.34,1331.38 2118.54,1335.00 2111.10,1335.45 2105.36,1340.22 2103.87,1348.06 2100.09,1352.07"/>
    <poly id="105904307" type="building" color="255,230,230" fill="1" layer="-1.00" shape="2487.59,457.10 2495.23,433.87 2483.99,430.20 2476.34,453.43 2487.59,457.10"/>
    <poly id="105904311" type="building" color="255,230,230" fill="1" layer="-1.00" shape="2466.81,520.23 2455.20,516.44 2450.70,530.13 2443.21,527.69 2440.79,535.09 2459.87,541.31 2466.81,520.23"/>
    <poly id="105904312" type="building" color="255,230,230" fill="1" layer="-1.00" shape="2466.81,520.23 2479.86,480.59 2467.83,476.67 2438.07,466.94 2425.02,506.58 2455.20,516.44 2466.81,520.23"/>
    <poly id="105904314" type="building" color="255,230,230" fill="1" layer="-1.00" shape="2479.86,480.59 2487.59,457.10 2476.34,453.43 2445.60,443.38 2442.52,452.75 2472.48,462.53 2467.83,476.67 2479.86,480.59"/>
    <poly id="105912558" type="building" color="255,230,230" fill="1" layer="-1.00" shape="1730.86,1444.63 1730.01,1445.38 1730.77,1446.22 1731.61,1445.48 1730.86,1444.63"/>
    <poly id="105912558#1" type="historic" color="128,255,128" fill="1" layer="-1.00" shape="1730.86,1444.63 1730.01,1445.38 1730.77,1446.22 1731.61,1445.48 1730.86,1444.63"/>
    <poly id="105912558#2" type="building" color="255,230,230" fill="1" layer="-1.00" shape="1730.86,1444.63 1730.01,1445.38 1730.77,1446.22 1731.61,1445.48 1730.86,1444.63"/>
    <poly id="106365799" type="building" color="255,230,230" fill="1" layer="-1.00" shape="2259.82,313.50 2254.49,327.13 2272.46,334.11 2270.90,338.08 2291.40,346.05 2292.96,342.08 2316.31,351.15 2313.51,358.31 2309.85,356.88 2302.45,375.77 2306.11,377.18 2301.19,389.77 2305.32,391.38 2304.55,393.40 2302.07,399.69 2292.74,396.08 2295.16,389.66 2282.52,384.60 2280.39,390.04 2287.47,392.79 2290.40,395.31 2291.44,398.24 2290.28,403.13 2287.64,405.74 2285.25,406.83 2281.96,406.88 2277.90,405.30 2275.48,411.49 2285.31,415.32 2287.65,409.18 2296.93,412.92 2294.58,418.92 2286.80,415.89 2284.00,423.04 2302.15,430.09 2336.20,343.17 2259.82,313.50"/>
    <poly id="106365809" type="building" color="255,230,230" fill="1" layer="-1.00" shape="2286.80,415.89 2285.31,415.32 2275.48,411.49 2272.46,410.31 2238.24,397.03 2237.48,396.73 2234.68,403.88 2284.00,423.04 2286.80,415.89"/>
    <poly id="106752931" type="landuse" color="194,194,130" fill="1" layer="-3.00" shape="788.89,2633.40 801.76,2639.62 814.63,2645.73 820.49,2649.85 805.12,2645.02 791.25,2642.42 774.61,2639.48 760.24,2638.67 741.82,2640.72 730.30,2643.11 719.09,2646.89 703.05,2654.64 686.60,2667.90 653.95,2695.50 612.11,2731.63 583.38,2754.19 567.70,2765.10 533.20,2783.43 559.58,2765.60 586.63,2742.68 631.48,2705.50 662.32,2680.14 700.65,2646.57 708.76,2640.83 719.74,2634.33 733.69,2629.93 746.47,2628.60 758.73,2627.96 777.85,2630.56 788.89,2633.40"/>
    <poly id="106752937" type="parking" color="184,184,179" fill="1" layer="-1.00" shape="573.07,2726.40 575.16,2728.70 588.78,2750.76 599.65,2760.66 634.99,2824.23 715.01,2910.01 887.09,2771.62 788.07,2670.53 784.86,2667.26 634.94,2677.75 617.55,2679.39 594.81,2694.18 576.38,2710.66 573.07,2726.40"/>
    <poly id="106752955" type="landuse" color="194,194,130" fill="1" layer="-3.00" shape="330.73,3113.04 358.89,3121.48 377.53,3127.07 387.84,3128.58 397.64,3128.77 404.11,3127.26 411.82,3122.33 416.14,3117.16 419.09,3110.69 420.90,3102.57 421.70,3051.65 424.73,3072.62 427.57,3086.97 430.93,3102.76 431.69,3108.03 430.23,3115.90 426.67,3122.01 420.96,3129.28 414.94,3134.16 407.92,3137.61 401.54,3138.52 395.49,3138.10 384.17,3135.30 358.49,3124.74 330.73,3113.04"/>
    <poly id="107293139" type="amenity" color="237,199,199" fill="1" layer="-1.00" shape="426.91,1148.22 433.93,1120.21 434.72,1113.54 435.64,1100.99 433.42,1087.68 431.71,1082.89 428.19,1071.33 422.58,1077.58 417.56,1084.79 412.46,1094.73 409.98,1101.98 408.32,1109.52 407.85,1115.29 407.80,1125.69 409.12,1133.66 412.15,1140.63 414.34,1145.07 415.83,1148.98 426.91,1148.22"/>
    <poly id="108147763" type="amenity" color="237,199,199" fill="1" layer="-1.00" shape="3096.07,1742.43 3091.68,1744.55 3090.86,1747.13 3092.88,1751.61 3095.02,1752.33 3099.84,1749.54 3100.34,1747.52 3129.12,1757.64 3127.92,1762.02 3128.59,1765.78 3128.92,1767.08 3133.11,1775.74 3142.34,1771.04 3138.76,1763.26 3143.42,1751.66 3147.58,1749.53 3174.54,1758.49 3187.37,1722.10 3155.71,1711.03 3146.01,1740.52 3139.12,1744.31 3127.89,1740.00 3100.82,1729.59 3096.07,1742.43"/>
    <poly id="108147763#1" type="building" color="255,230,230" fill="1" layer="-1.00" shape="3096.07,1742.43 3091.68,1744.55 3090.86,1747.13 3092.88,1751.61 3095.02,1752.33 3099.84,1749.54 3100.34,1747.52 3129.12,1757.64 3127.92,1762.02 3128.59,1765.78 3128.92,1767.08 3133.11,1775.74 3142.34,1771.04 3138.76,1763.26 3143.42,1751.66 3147.58,1749.53 3174.54,1758.49 3187.37,1722.10 3155.71,1711.03 3146.01,1740.52 3139.12,1744.31 3127.89,1740.00 3100.82,1729.59 3096.07,1742.43"/>
    <poly id="108148324" type="amenity" color="237,199,199" fill="1" layer="-1.00" shape="3296.84,1802.69 3324.02,1811.95 3330.21,1793.95 3303.03,1784.69 3296.84,1802.69"/>
    <poly id="108148324#1" type="building" color="255,230,230" fill="1" layer="-1.00" shape="3296.84,1802.69 3324.02,1811.95 3330.21,1793.95 3303.03,1784.69 3296.84,1802.69"/>
    <poly id="108513862" type="building" color="255,230,230" fill="1" layer="-1.00" shape="3363.12,585.87 3453.58,525.56 3471.09,553.45 3460.18,561.09 3462.26,563.91 3381.86,617.73 3363.12,585.87"/>
    <poly id="108513875" type="building" color="255,230,230" fill="1" layer="-1.00" shape="3318.17,572.08 3393.01,518.44 3410.43,543.23 3335.82,596.87 3318.17,572.08"/>
    <poly id="108643531" type="amenity" color="237,199,199" fill="1" layer="-1.00" shape="3017.32,2016.53 3009.50,2014.36 3004.61,2016.67 2999.09,2018.20 2992.83,2017.24 2987.77,2015.36 2984.29,2012.62 2980.65,2008.44 2978.49,2004.31 2974.36,2002.85 2977.67,1990.99 2982.45,1992.55 2986.03,1990.30 2990.42,1989.15 2995.18,1988.90 2999.17,1989.58 3003.99,1991.47 3007.93,1994.08 3010.74,1997.04 3012.30,1999.94 3012.69,2001.62 3020.72,2004.44 3017.32,2016.53"/>
    <poly id="109462291" type="parking" color="184,184,179" fill="1" layer="-1.00" shape="3331.05,2126.59 3335.27,2130.39 3355.78,2107.72 3351.56,2103.93 3331.05,2126.59"/>
    <poly id="109469602" type="building" color="255,230,230" fill="1" layer="-1.00" shape="411.16,1610.32 430.96,1618.46 441.04,1601.59 418.75,1591.61 411.16,1610.32"/>
    <poly id="109469611" type="building" color="255,230,230" fill="1" layer="-1.00" shape="380.57,1611.78 399.88,1616.89 412.39,1587.95 390.27,1578.60 380.57,1611.78"/>
    <poly id="109469613" type="building" color="255,230,230" fill="1" layer="-1.00" shape="437.81,1617.69 444.98,1605.10 456.75,1611.28 450.08,1623.69 437.81,1617.69"/>
    <poly id="109472622" type="building" color="255,230,230" fill="1" layer="-1.00" shape="391.16,1574.15 467.55,1609.78 478.97,1575.73 465.28,1571.21 466.62,1567.65 471.88,1568.94 474.19,1559.81 462.98,1556.64 462.37,1559.07 457.77,1568.41 454.77,1574.45 428.63,1561.56 423.75,1559.08 429.42,1548.66 416.73,1545.98 412.17,1557.80 396.79,1551.42 391.16,1574.15"/>
    <poly id="111540214" type="water" color="181,209,209" fill="1" layer="-4.00" shape="544.24,1146.44 543.96,1148.33 544.48,1150.86 545.54,1152.72 547.59,1154.55 550.75,1155.68 554.86,1155.67 557.27,1154.27 559.08,1151.21 559.70,1149.67 544.38,1145.14 544.24,1146.44"/>
    <poly id="111540215" type="water" color="181,209,209" fill="1" layer="-4.00" shape="456.14,1120.98 455.79,1122.52 455.72,1124.07 456.47,1126.72 457.63,1128.56 458.91,1130.08 460.04,1130.83 462.40,1131.87 464.30,1131.92 466.08,1131.87 468.96,1131.23 470.37,1130.08 471.67,1128.60 472.76,1125.33 456.14,1120.98"/>
    <poly id="111540216" type="landuse" color="194,194,130" fill="1" layer="-3.00" shape="454.41,1132.33 455.58,1138.06 457.41,1143.44 460.56,1148.56 464.00,1152.13 468.21,1155.21 472.86,1157.86 475.55,1158.54 479.09,1157.78 483.98,1139.97 479.67,1137.32 476.48,1133.99 474.97,1130.35 473.72,1130.31 472.57,1132.68 470.16,1134.19 466.74,1135.40 464.29,1135.36 461.94,1134.98 459.92,1134.37 457.09,1132.69 455.83,1131.73 454.41,1132.33"/>
    <poly id="111669472" type="historic" color="128,255,128" fill="1" layer="-1.00" shape="320.90,664.83 333.20,622.81 337.15,623.82 345.59,626.15 346.86,621.22 356.27,623.72 366.67,625.87 378.42,627.57 392.38,628.65 401.25,629.33 401.66,666.29 385.41,666.93 377.53,667.40 376.39,650.33 373.25,645.98 366.47,646.29 364.60,651.52 360.77,651.55 361.86,675.92 320.90,664.83"/>
    <poly id="111669472#1" type="tourism" color="207,245,201" fill="1" layer="-2.00" shape="320.90,664.83 333.20,622.81 337.15,623.82 345.59,626.15 346.86,621.22 356.27,623.72 366.67,625.87 378.42,627.57 392.38,628.65 401.25,629.33 401.66,666.29 385.41,666.93 377.53,667.40 376.39,650.33 373.25,645.98 366.47,646.29 364.60,651.52 360.77,651.55 361.86,675.92 320.90,664.83"/>
    <poly id="111669473" type="amenity" color="237,199,199" fill="1" layer="-1.00" shape="361.90,676.32 361.86,675.92 360.77,651.55 364.60,651.52 366.47,646.29 373.25,645.98 376.39,650.33 377.70,675.94 371.50,676.16 361.90,676.32"/>
    <poly id="111669473#1" type="building" color="255,230,230" fill="1" layer="-1.00" shape="361.90,676.32 361.86,675.92 360.77,651.55 364.60,651.52 366.47,646.29 373.25,645.98 376.39,650.33 377.70,675.94 371.50,676.16 361.90,676.32"/>
    <poly id="111671157" type="historic" color="128,255,128" fill="1" layer="-1.00" shape="229.29,720.78 266.86,733.38 273.47,735.01 282.52,705.91 277.63,704.36 276.46,703.97 271.14,720.99 268.91,720.28 244.85,712.81 242.26,712.03 241.93,713.11 236.24,711.38 232.54,710.36 229.29,720.78"/>
    <poly id="111671157#1" type="tourism" color="207,245,201" fill="1" layer="-2.00" shape="229.29,720.78 266.86,733.38 273.47,735.01 282.52,705.91 277.63,704.36 276.46,703.97 271.14,720.99 268.91,720.28 244.85,712.81 242.26,712.03 241.93,713.11 236.24,711.38 232.54,710.36 229.29,720.78"/>
    <poly id="112378887" type="building" color="255,230,230" fill="1" layer="-1.00" shape="1630.97,2047.51 1665.87,2003.58 1671.47,2008.00 1680.37,1996.78 1687.48,2002.38 1684.15,2006.58 1687.18,2008.96 1683.93,2013.06 1687.61,2015.96 1687.01,2016.70 1693.18,2021.56 1691.18,2024.08 1698.38,2029.75 1695.68,2033.14 1692.92,2030.95 1686.44,2025.85 1664.84,2053.04 1672.80,2059.32 1666.63,2067.08 1658.52,2060.70 1654.35,2065.94 1630.97,2047.51"/>
    <poly id="112379383" type="landuse" color="194,194,130" fill="1" layer="-3.00" shape="1775.41,2120.02 1811.30,2117.64 1811.55,2114.64 1812.15,2112.51 1813.00,2111.15 1794.54,2096.39 1775.41,2120.02"/>
    <poly id="112383672" type="building" color="255,230,230" fill="1" layer="-1.00" shape="1625.96,2057.06 1629.19,2059.43 1629.02,2061.69 1628.91,2063.14 1629.97,2066.33 1632.75,2069.09 1635.84,2070.55 1639.70,2071.07 1640.45,2070.68 1642.15,2069.79 1647.42,2073.61 1643.60,2078.36 1636.61,2086.99 1627.95,2097.81 1606.56,2081.49 1625.96,2057.06"/>